xflr5 v6.50

Plane Name
T1-44.0 m/s-VLM1
QInf  =   44.000000 m/s
Alpha =    0.000000
Beta  =    0.000°
Phi   =    0.000°
Ctrl  =    0.000
CL    =    0.000004
Cy    =   -0.000000
Cd    =    0.006890     ICd   =    0.000000     PCd   =    0.006890
Cl   = 3.22423e-20
Cm   = -4.06241e-06
ICn   =    0.000000     PCn   =    0.000000 
XCP   =    0.250599     YCP   =   -0.000000     ZCP   =    0.000105  
XNP   =    0.000000
Bending =    0.000189

Main Wing
  y-span        Chord      Ai         Cl        PCd          ICd        CmGeom    CmAirf@chord/4    XTrtop    XTrBot      XCP       BM
   -0.6389     0.2400    -0.000    0.000001    0.006890    0.000000   -0.000001   -0.000001     0.6677    0.6675    1.2125    0.0000
   -0.6345     0.2400    -0.000    0.000001    0.006890    0.000000   -0.000001   -0.000001     0.6677    0.6675    1.2481    0.0000
   -0.6258     0.2400    -0.000    0.000002    0.006890    0.000000   -0.000002   -0.000002     0.6677    0.6675    1.2555    0.0000
   -0.6129     0.2400    -0.000    0.000002    0.006890    0.000000   -0.000003   -0.000002     0.6677    0.6675    1.2305    0.0000
   -0.5957     0.2400    -0.000    0.000003    0.006890    0.000000   -0.000003   -0.000002     0.6677    0.6675    1.1954    0.0000
   -0.5745     0.2400    -0.000    0.000003    0.006890    0.000000   -0.000003   -0.000003     0.6677    0.6675    1.1625    0.0000
   -0.5493     0.2400    -0.000    0.000003    0.006890    0.000000   -0.000004   -0.000003     0.6677    0.6675    1.1347    0.0000
   -0.5204     0.2400    -0.000    0.000004    0.006890    0.000000   -0.000004   -0.000003     0.6677    0.6675    1.1111    0.0000
   -0.4880     0.2400    -0.000    0.000004    0.006890    0.000000   -0.000004   -0.000003     0.6677    0.6675    1.0904    0.0000
   -0.4522     0.2400    -0.000    0.000004    0.006890    0.000000   -0.000004   -0.000003     0.6677    0.6675    1.0721    0.0000
   -0.4133     0.2400    -0.000    0.000004    0.006890    0.000000   -0.000004   -0.000003     0.6677    0.6675    1.0560    0.0000
   -0.3716     0.2400    -0.000    0.000004    0.006890    0.000000   -0.000004   -0.000003     0.6677    0.6675    1.0421    0.0000
   -0.3273     0.2400    -0.000    0.000004    0.006890    0.000000   -0.000004   -0.000003     0.6677    0.6675    1.0303    0.0000
   -0.2808     0.2400    -0.000    0.000004    0.006890    0.000000   -0.000004   -0.000003     0.6677    0.6675    1.0204    0.0001
   -0.2324     0.2400    -0.000    0.000004    0.006890    0.000000   -0.000004   -0.000003     0.6677    0.6675    1.0125    0.0001
   -0.1825     0.2400    -0.000    0.000004    0.006890    0.000000   -0.000004   -0.000003     0.6677    0.6675    1.0063    0.0001
   -0.1312     0.2400    -0.000    0.000004    0.006890    0.000000   -0.000004   -0.000003     0.6677    0.6675    1.0017    0.0001
   -0.0791     0.2400    -0.000    0.000004    0.006890    0.000000   -0.000004   -0.000003     0.6677    0.6675    0.9988    0.0002
   -0.0264     0.2400    -0.000    0.000004    0.006890    0.000000   -0.000004   -0.000003     0.6677    0.6675    0.9973    0.0002
    0.0264     0.2400    -0.000    0.000004    0.006890    0.000000   -0.000004   -0.000003     0.6677    0.6675    0.9973    0.0002
    0.0791     0.2400    -0.000    0.000004    0.006890    0.000000   -0.000004   -0.000003     0.6677    0.6675    0.9988    0.0002
    0.1312     0.2400    -0.000    0.000004    0.006890    0.000000   -0.000004   -0.000003     0.6677    0.6675    1.0017    0.0001
    0.1825     0.2400    -0.000    0.000004    0.006890    0.000000   -0.000004   -0.000003     0.6677    0.6675    1.0063    0.0001
    0.2324     0.2400    -0.000    0.000004    0.006890    0.000000   -0.000004   -0.000003     0.6677    0.6675    1.0125    0.0001
    0.2808     0.2400    -0.000    0.000004    0.006890    0.000000   -0.000004   -0.000003     0.6677    0.6675    1.0204    0.0001
    0.3273     0.2400    -0.000    0.000004    0.006890    0.000000   -0.000004   -0.000003     0.6677    0.6675    1.0303    0.0000
    0.3716     0.2400    -0.000    0.000004    0.006890    0.000000   -0.000004   -0.000003     0.6677    0.6675    1.0421    0.0000
    0.4133     0.2400    -0.000    0.000004    0.006890    0.000000   -0.000004   -0.000003     0.6677    0.6675    1.0560    0.0000
    0.4522     0.2400    -0.000    0.000004    0.006890    0.000000   -0.000004   -0.000003     0.6677    0.6675    1.0721    0.0000
    0.4880     0.2400    -0.000    0.000004    0.006890    0.000000   -0.000004   -0.000003     0.6677    0.6675    1.0904    0.0000
    0.5204     0.2400    -0.000    0.000004    0.006890    0.000000   -0.000004   -0.000003     0.6677    0.6675    1.1111    0.0000
    0.5493     0.2400    -0.000    0.000003    0.006890    0.000000   -0.000004   -0.000003     0.6677    0.6675    1.1347    0.0000
    0.5745     0.2400    -0.000    0.000003    0.006890    0.000000   -0.000003   -0.000003     0.6677    0.6675    1.1625    0.0000
    0.5957     0.2400    -0.000    0.000003    0.006890    0.000000   -0.000003   -0.000002     0.6677    0.6675    1.1954    0.0000
    0.6129     0.2400    -0.000    0.000002    0.006890    0.000000   -0.000003   -0.000002     0.6677    0.6675    1.2305    0.0000
    0.6258     0.2400    -0.000    0.000002    0.006890    0.000000   -0.000002   -0.000002     0.6677    0.6675    1.2555    0.0000
    0.6345     0.2400    -0.000    0.000001    0.006890    0.000000   -0.000001   -0.000001     0.6677    0.6675    1.2481    0.0000
    0.6389     0.2400    -0.000    0.000001    0.006890    0.000000   -0.000001   -0.000001     0.6677    0.6675    1.2125    0.0000


Main Wing Cp Coefficients
 Panel     CtrlPt.x        CtrlPt.y        CtrlPt.z       Nx      Ny       Nz        Area       Cp
Main WingCp Coefficients
Strip 1
   0       2.391e-01      -6.389e-01       3.006e-09           0.000           0.000           1.000       7.622e-06          0.0000
   1       2.339e-01      -6.389e-01       5.410e-09          -0.000           0.000           1.000       2.242e-05         -0.0000
   2       2.221e-01      -6.389e-01      -3.730e-09           0.000           0.000           1.000       3.592e-05          0.0000
   3       2.044e-01      -6.389e-01       2.181e-08          -0.000           0.000           1.000       4.733e-05         -0.0000
   4       1.818e-01      -6.389e-01       3.641e-08           0.000           0.000           1.000       5.599e-05         -0.0000
   5       1.555e-01      -6.389e-01       3.446e-07           0.000           0.000           1.000       6.140e-05          0.0000
   6       1.272e-01      -6.389e-01       9.930e-07           0.000           0.000           1.000       6.324e-05          0.0001
   7       9.851e-02      -6.389e-01      -1.336e-08          -0.000           0.000           1.000       6.140e-05         -0.0004
   8       7.104e-02      -6.389e-01      -1.739e-06           0.000           0.000           1.000       5.599e-05          0.0004
   9       4.642e-02      -6.389e-01       2.241e-06          -0.000           0.000           1.000       4.733e-05         -0.0001
  10       2.607e-02      -6.389e-01      -2.672e-07          -0.000           0.000           1.000       3.592e-05         -0.0001
  11       1.118e-02      -6.389e-01      -8.133e-07           0.000           0.000           1.000       2.242e-05         -0.0002
  12       2.615e-03      -6.389e-01      -4.842e-07           0.000           0.000           1.000       7.622e-06          0.0005
Strip 2
  13       2.391e-01      -6.345e-01       3.006e-09           0.000           0.000           1.000       2.281e-05          0.0000
  14       2.339e-01      -6.345e-01       5.410e-09          -0.000           0.000           1.000       6.712e-05         -0.0000
  15       2.221e-01      -6.345e-01      -3.730e-09           0.000           0.000           1.000       1.075e-04          0.0000
  16       2.044e-01      -6.345e-01       2.181e-08          -0.000           0.000           1.000       1.417e-04         -0.0000
  17       1.818e-01      -6.345e-01       3.641e-08           0.000           0.000           1.000       1.676e-04         -0.0000
  18       1.555e-01      -6.345e-01       3.446e-07           0.000           0.000           1.000       1.838e-04          0.0001
  19       1.272e-01      -6.345e-01       9.930e-07           0.000           0.000           1.000       1.893e-04          0.0002
  20       9.851e-02      -6.345e-01      -1.336e-08          -0.000           0.000           1.000       1.838e-04         -0.0006
  21       7.104e-02      -6.345e-01      -1.739e-06           0.000           0.000           1.000       1.676e-04          0.0006
  22       4.642e-02      -6.345e-01       2.241e-06          -0.000           0.000           1.000       1.417e-04         -0.0001
  23       2.607e-02      -6.345e-01      -2.672e-07          -0.000           0.000           1.000       1.075e-04         -0.0002
  24       1.118e-02      -6.345e-01      -8.133e-07           0.000           0.000           1.000       6.712e-05         -0.0002
  25       2.615e-03      -6.345e-01      -4.842e-07           0.000           0.000           1.000       2.281e-05          0.0007
Strip 3
  26       2.391e-01      -6.258e-01       3.006e-09           0.000           0.000           1.000       3.785e-05          0.0000
  27       2.339e-01      -6.258e-01       5.410e-09          -0.000           0.000           1.000       1.114e-04         -0.0000
  28       2.221e-01      -6.258e-01      -3.730e-09           0.000           0.000           1.000       1.784e-04          0.0000
  29       2.044e-01      -6.258e-01       2.181e-08          -0.000           0.000           1.000       2.351e-04         -0.0000
  30       1.818e-01      -6.258e-01       3.641e-08           0.000           0.000           1.000       2.781e-04         -0.0000
  31       1.555e-01      -6.258e-01       3.446e-07           0.000           0.000           1.000       3.049e-04          0.0001
  32       1.272e-01      -6.258e-01       9.930e-07           0.000           0.000           1.000       3.140e-04          0.0003
  33       9.851e-02      -6.258e-01      -1.336e-08          -0.000           0.000           1.000       3.049e-04         -0.0008
  34       7.104e-02      -6.258e-01      -1.739e-06           0.000           0.000           1.000       2.781e-04          0.0008
  35       4.642e-02      -6.258e-01       2.241e-06          -0.000           0.000           1.000       2.351e-04         -0.0001
  36       2.607e-02      -6.258e-01      -2.672e-07          -0.000           0.000           1.000       1.784e-04         -0.0002
  37       1.118e-02      -6.258e-01      -8.133e-07           0.000           0.000           1.000       1.114e-04         -0.0002
  38       2.615e-03      -6.258e-01      -4.842e-07           0.000           0.000           1.000       3.785e-05          0.0007
Strip 4
  39       2.391e-01      -6.129e-01       3.006e-09           0.000           0.000           1.000       5.263e-05          0.0000
  40       2.339e-01      -6.129e-01       5.410e-09          -0.000           0.000           1.000       1.548e-04         -0.0000
  41       2.221e-01      -6.129e-01      -3.730e-09           0.000          -0.000           1.000       2.480e-04          0.0000
  42       2.044e-01      -6.129e-01       2.181e-08          -0.000           0.000           1.000       3.268e-04         -0.0000
  43       1.818e-01      -6.129e-01       3.641e-08           0.000          -0.000           1.000       3.866e-04         -0.0000
  44       1.555e-01      -6.129e-01       3.446e-07           0.000           0.000           1.000       4.239e-04          0.0001
  45       1.272e-01      -6.129e-01       9.930e-07           0.000           0.000           1.000       4.366e-04          0.0003
  46       9.851e-02      -6.129e-01      -1.336e-08          -0.000           0.000           1.000       4.239e-04         -0.0008
  47       7.104e-02      -6.129e-01      -1.739e-06           0.000           0.000           1.000       3.866e-04          0.0008
  48       4.642e-02      -6.129e-01       2.241e-06          -0.000           0.000           1.000       3.268e-04         -0.0001
  49       2.607e-02      -6.129e-01      -2.672e-07          -0.000           0.000           1.000       2.480e-04         -0.0003
  50       1.118e-02      -6.129e-01      -8.133e-07           0.000           0.000           1.000       1.548e-04         -0.0002
  51       2.615e-03      -6.129e-01      -4.842e-07           0.000           0.000           1.000       5.263e-05          0.0007
Strip 5
  52       2.391e-01      -5.957e-01       3.006e-09           0.000           0.000           1.000       6.705e-05          0.0000
  53       2.339e-01      -5.957e-01       5.410e-09          -0.000           0.000           1.000       1.972e-04         -0.0000
  54       2.221e-01      -5.957e-01      -3.730e-09           0.000           0.000           1.000       3.160e-04          0.0000
  55       2.044e-01      -5.957e-01       2.181e-08          -0.000           0.000           1.000       4.164e-04         -0.0000
  56       1.818e-01      -5.957e-01       3.641e-08           0.000          -0.000           1.000       4.925e-04         -0.0000
  57       1.555e-01      -5.957e-01       3.446e-07           0.000           0.000           1.000       5.401e-04          0.0001
  58       1.272e-01      -5.957e-01       9.930e-07           0.000          -0.000           1.000       5.562e-04          0.0003
  59       9.851e-02      -5.957e-01      -1.336e-08          -0.000           0.000           1.000       5.401e-04         -0.0009
  60       7.104e-02      -5.957e-01      -1.739e-06           0.000           0.000           1.000       4.925e-04          0.0008
  61       4.642e-02      -5.957e-01       2.241e-06          -0.000           0.000           1.000       4.164e-04         -0.0001
  62       2.607e-02      -5.957e-01      -2.672e-07          -0.000           0.000           1.000       3.160e-04         -0.0003
  63       1.118e-02      -5.957e-01      -8.133e-07           0.000           0.000           1.000       1.972e-04         -0.0002
  64       2.615e-03      -5.957e-01      -4.842e-07           0.000           0.000           1.000       6.705e-05          0.0007
Strip 6
  65       2.391e-01      -5.745e-01       3.006e-09           0.000           0.000           1.000       8.101e-05          0.0000
  66       2.339e-01      -5.745e-01       5.410e-09          -0.000           0.000           1.000       2.383e-04         -0.0000
  67       2.221e-01      -5.745e-01      -3.730e-09           0.000           0.000           1.000       3.818e-04          0.0000
  68       2.044e-01      -5.745e-01       2.181e-08          -0.000           0.000           1.000       5.030e-04         -0.0000
  69       1.818e-01      -5.745e-01       3.641e-08           0.000           0.000           1.000       5.951e-04         -0.0000
  70       1.555e-01      -5.745e-01       3.446e-07           0.000           0.000           1.000       6.525e-04          0.0001
  71       1.272e-01      -5.745e-01       9.930e-07           0.000           0.000           1.000       6.721e-04          0.0003
  72       9.851e-02      -5.745e-01      -1.336e-08          -0.000           0.000           1.000       6.525e-04         -0.0009
  73       7.104e-02      -5.745e-01      -1.739e-06           0.000           0.000           1.000       5.951e-04          0.0008
  74       4.642e-02      -5.745e-01       2.241e-06          -0.000           0.000           1.000       5.030e-04         -0.0001
  75       2.607e-02      -5.745e-01      -2.672e-07          -0.000           0.000           1.000       3.818e-04         -0.0003
  76       1.118e-02      -5.745e-01      -8.133e-07           0.000           0.000           1.000       2.383e-04         -0.0002
  77       2.615e-03      -5.745e-01      -4.842e-07           0.000           0.000           1.000       8.101e-05          0.0007
Strip 7
  78       2.391e-01      -5.493e-01       3.006e-09           0.000           0.000           1.000       9.442e-05          0.0000
  79       2.339e-01      -5.493e-01       5.410e-09          -0.000           0.000           1.000       2.778e-04         -0.0000
  80       2.221e-01      -5.493e-01      -3.730e-09           0.000          -0.000           1.000       4.450e-04          0.0000
  81       2.044e-01      -5.493e-01       2.181e-08          -0.000           0.000           1.000       5.863e-04         -0.0000
  82       1.818e-01      -5.493e-01       3.641e-08           0.000           0.000           1.000       6.936e-04         -0.0000
  83       1.555e-01      -5.493e-01       3.446e-07           0.000           0.000           1.000       7.605e-04          0.0001
  84       1.272e-01      -5.493e-01       9.930e-07           0.000          -0.000           1.000       7.833e-04          0.0003
  85       9.851e-02      -5.493e-01      -1.336e-08          -0.000           0.000           1.000       7.605e-04         -0.0009
  86       7.104e-02      -5.493e-01      -1.739e-06           0.000           0.000           1.000       6.936e-04          0.0008
  87       4.642e-02      -5.493e-01       2.241e-06          -0.000           0.000           1.000       5.863e-04         -0.0001
  88       2.607e-02      -5.493e-01      -2.672e-07          -0.000           0.000           1.000       4.450e-04         -0.0003
  89       1.118e-02      -5.493e-01      -8.133e-07           0.000           0.000           1.000       2.778e-04         -0.0002
  90       2.615e-03      -5.493e-01      -4.842e-07           0.000           0.000           1.000       9.442e-05          0.0007
Strip 8
  91       2.391e-01      -5.204e-01       3.006e-09           0.000           0.000           1.000       1.072e-04          0.0000
  92       2.339e-01      -5.204e-01       5.410e-09          -0.000           0.000           1.000       3.153e-04         -0.0000
  93       2.221e-01      -5.204e-01      -3.730e-09           0.000           0.000           1.000       5.051e-04          0.0000
  94       2.044e-01      -5.204e-01       2.181e-08          -0.000          -0.000           1.000       6.656e-04         -0.0000
  95       1.818e-01      -5.204e-01       3.641e-08           0.000           0.000           1.000       7.873e-04         -0.0000
  96       1.555e-01      -5.204e-01       3.446e-07           0.000           0.000           1.000       8.633e-04          0.0001
  97       1.272e-01      -5.204e-01       9.930e-07           0.000           0.000           1.000       8.892e-04          0.0003
  98       9.851e-02      -5.204e-01      -1.336e-08          -0.000          -0.000           1.000       8.633e-04         -0.0009
  99       7.104e-02      -5.204e-01      -1.739e-06           0.000           0.000           1.000       7.873e-04          0.0008
 100       4.642e-02      -5.204e-01       2.241e-06          -0.000          -0.000           1.000       6.656e-04         -0.0001
 101       2.607e-02      -5.204e-01      -2.672e-07          -0.000           0.000           1.000       5.051e-04         -0.0003
 102       1.118e-02      -5.204e-01      -8.133e-07           0.000           0.000           1.000       3.153e-04         -0.0002
 103       2.615e-03      -5.204e-01      -4.842e-07           0.000           0.000           1.000       1.072e-04          0.0007
Strip 9
 104       2.391e-01      -4.880e-01       3.006e-09           0.000           0.000           1.000       1.192e-04          0.0000
 105       2.339e-01      -4.880e-01       5.410e-09          -0.000           0.000           1.000       3.507e-04         -0.0000
 106       2.221e-01      -4.880e-01      -3.730e-09           0.000           0.000           1.000       5.618e-04          0.0000
 107       2.044e-01      -4.880e-01       2.181e-08          -0.000           0.000           1.000       7.403e-04         -0.0000
 108       1.818e-01      -4.880e-01       3.641e-08           0.000          -0.000           1.000       8.757e-04         -0.0000
 109       1.555e-01      -4.880e-01       3.446e-07           0.000          -0.000           1.000       9.602e-04          0.0001
 110       1.272e-01      -4.880e-01       9.930e-07           0.000           0.000           1.000       9.890e-04          0.0003
 111       9.851e-02      -4.880e-01      -1.336e-08          -0.000          -0.000           1.000       9.602e-04         -0.0009
 112       7.104e-02      -4.880e-01      -1.739e-06           0.000           0.000           1.000       8.757e-04          0.0008
 113       4.642e-02      -4.880e-01       2.241e-06          -0.000          -0.000           1.000       7.403e-04         -0.0001
 114       2.607e-02      -4.880e-01      -2.672e-07          -0.000          -0.000           1.000       5.618e-04         -0.0003
 115       1.118e-02      -4.880e-01      -8.133e-07           0.000          -0.000           1.000       3.507e-04         -0.0002
 116       2.615e-03      -4.880e-01      -4.842e-07           0.000           0.000           1.000       1.192e-04          0.0007
Strip 10
 117       2.391e-01      -4.522e-01       3.006e-09           0.000           0.000           1.000       1.304e-04          0.0000
 118       2.339e-01      -4.522e-01       5.410e-09          -0.000           0.000           1.000       3.837e-04         -0.0000
 119       2.221e-01      -4.522e-01      -3.730e-09           0.000          -0.000           1.000       6.147e-04          0.0000
 120       2.044e-01      -4.522e-01       2.181e-08          -0.000          -0.000           1.000       8.099e-04         -0.0000
 121       1.818e-01      -4.522e-01       3.641e-08           0.000           0.000           1.000       9.581e-04         -0.0000
 122       1.555e-01      -4.522e-01       3.446e-07           0.000           0.000           1.000       1.051e-03          0.0001
 123       1.272e-01      -4.522e-01       9.930e-07           0.000           0.000           1.000       1.082e-03          0.0003
 124       9.851e-02      -4.522e-01      -1.336e-08          -0.000           0.000           1.000       1.051e-03         -0.0009
 125       7.104e-02      -4.522e-01      -1.739e-06           0.000           0.000           1.000       9.581e-04          0.0008
 126       4.642e-02      -4.522e-01       2.241e-06          -0.000           0.000           1.000       8.099e-04         -0.0001
 127       2.607e-02      -4.522e-01      -2.672e-07          -0.000           0.000           1.000       6.147e-04         -0.0003
 128       1.118e-02      -4.522e-01      -8.133e-07           0.000          -0.000           1.000       3.837e-04         -0.0002
 129       2.615e-03      -4.522e-01      -4.842e-07           0.000           0.000           1.000       1.304e-04          0.0007
Strip 11
 130       2.391e-01      -4.133e-01       3.006e-09           0.000           0.000           1.000       1.407e-04          0.0000
 131       2.339e-01      -4.133e-01       5.410e-09          -0.000           0.000           1.000       4.141e-04         -0.0000
 132       2.221e-01      -4.133e-01      -3.730e-09           0.000          -0.000           1.000       6.633e-04          0.0000
 133       2.044e-01      -4.133e-01       2.181e-08          -0.000           0.000           1.000       8.740e-04         -0.0000
 134       1.818e-01      -4.133e-01       3.641e-08           0.000           0.000           1.000       1.034e-03         -0.0000
 135       1.555e-01      -4.133e-01       3.446e-07           0.000           0.000           1.000       1.134e-03          0.0001
 136       1.272e-01      -4.133e-01       9.930e-07           0.000           0.000           1.000       1.168e-03          0.0003
 137       9.851e-02      -4.133e-01      -1.336e-08          -0.000           0.000           1.000       1.134e-03         -0.0009
 138       7.104e-02      -4.133e-01      -1.739e-06           0.000           0.000           1.000       1.034e-03          0.0008
 139       4.642e-02      -4.133e-01       2.241e-06          -0.000           0.000           1.000       8.740e-04         -0.0001
 140       2.607e-02      -4.133e-01      -2.672e-07          -0.000           0.000           1.000       6.633e-04         -0.0003
 141       1.118e-02      -4.133e-01      -8.133e-07           0.000           0.000           1.000       4.141e-04         -0.0002
 142       2.615e-03      -4.133e-01      -4.842e-07           0.000           0.000           1.000       1.407e-04          0.0007
Strip 12
 143       2.391e-01      -3.716e-01       3.006e-09           0.000           0.000           1.000       1.501e-04          0.0000
 144       2.339e-01      -3.716e-01       5.410e-09          -0.000           0.000           1.000       4.416e-04         -0.0000
 145       2.221e-01      -3.716e-01      -3.730e-09           0.000           0.000           1.000       7.074e-04          0.0000
 146       2.044e-01      -3.716e-01       2.181e-08          -0.000          -0.000           1.000       9.322e-04         -0.0000
 147       1.818e-01      -3.716e-01       3.641e-08           0.000           0.000           1.000       1.103e-03         -0.0000
 148       1.555e-01      -3.716e-01       3.446e-07           0.000           0.000           1.000       1.209e-03          0.0001
 149       1.272e-01      -3.716e-01       9.930e-07           0.000          -0.000           1.000       1.245e-03          0.0003
 150       9.851e-02      -3.716e-01      -1.336e-08          -0.000           0.000           1.000       1.209e-03         -0.0009
 151       7.104e-02      -3.716e-01      -1.739e-06           0.000           0.000           1.000       1.103e-03          0.0008
 152       4.642e-02      -3.716e-01       2.241e-06          -0.000          -0.000           1.000       9.322e-04         -0.0001
 153       2.607e-02      -3.716e-01      -2.672e-07          -0.000          -0.000           1.000       7.074e-04         -0.0003
 154       1.118e-02      -3.716e-01      -8.133e-07           0.000           0.000           1.000       4.416e-04         -0.0002
 155       2.615e-03      -3.716e-01      -4.842e-07           0.000           0.000           1.000       1.501e-04          0.0007
Strip 13
 156       2.391e-01      -3.273e-01       3.006e-09           0.000           0.000           1.000       1.585e-04          0.0000
 157       2.339e-01      -3.273e-01       5.410e-09          -0.000           0.000           1.000       4.661e-04         -0.0000
 158       2.221e-01      -3.273e-01      -3.730e-09           0.000           0.000           1.000       7.467e-04          0.0000
 159       2.044e-01      -3.273e-01       2.181e-08          -0.000           0.000           1.000       9.839e-04         -0.0000
 160       1.818e-01      -3.273e-01       3.641e-08           0.000           0.000           1.000       1.164e-03         -0.0000
 161       1.555e-01      -3.273e-01       3.446e-07           0.000           0.000           1.000       1.276e-03          0.0001
 162       1.272e-01      -3.273e-01       9.930e-07           0.000           0.000           1.000       1.315e-03          0.0003
 163       9.851e-02      -3.273e-01      -1.336e-08          -0.000           0.000           1.000       1.276e-03         -0.0009
 164       7.104e-02      -3.273e-01      -1.739e-06           0.000           0.000           1.000       1.164e-03          0.0008
 165       4.642e-02      -3.273e-01       2.241e-06          -0.000           0.000           1.000       9.839e-04         -0.0001
 166       2.607e-02      -3.273e-01      -2.672e-07          -0.000           0.000           1.000       7.467e-04         -0.0003
 167       1.118e-02      -3.273e-01      -8.133e-07           0.000           0.000           1.000       4.661e-04         -0.0002
 168       2.615e-03      -3.273e-01      -4.842e-07           0.000           0.000           1.000       1.585e-04          0.0007
Strip 14
 169       2.391e-01      -2.808e-01       3.006e-09           0.000           0.000           1.000       1.657e-04          0.0000
 170       2.339e-01      -2.808e-01       5.410e-09          -0.000           0.000           1.000       4.875e-04         -0.0000
 171       2.221e-01      -2.808e-01      -3.730e-09           0.000          -0.000           1.000       7.809e-04          0.0000
 172       2.044e-01      -2.808e-01       2.181e-08          -0.000           0.000           1.000       1.029e-03         -0.0000
 173       1.818e-01      -2.808e-01       3.641e-08           0.000           0.000           1.000       1.217e-03         -0.0000
 174       1.555e-01      -2.808e-01       3.446e-07           0.000           0.000           1.000       1.335e-03          0.0001
 175       1.272e-01      -2.808e-01       9.930e-07           0.000          -0.000           1.000       1.375e-03          0.0003
 176       9.851e-02      -2.808e-01      -1.336e-08          -0.000           0.000           1.000       1.335e-03         -0.0009
 177       7.104e-02      -2.808e-01      -1.739e-06           0.000           0.000           1.000       1.217e-03          0.0008
 178       4.642e-02      -2.808e-01       2.241e-06          -0.000           0.000           1.000       1.029e-03         -0.0001
 179       2.607e-02      -2.808e-01      -2.672e-07          -0.000           0.000           1.000       7.809e-04         -0.0003
 180       1.118e-02      -2.808e-01      -8.133e-07           0.000           0.000           1.000       4.875e-04         -0.0002
 181       2.615e-03      -2.808e-01      -4.842e-07           0.000           0.000           1.000       1.657e-04          0.0007
Strip 15
 182       2.391e-01      -2.324e-01       3.006e-09           0.000           0.000           1.000       1.718e-04          0.0000
 183       2.339e-01      -2.324e-01       5.410e-09          -0.000           0.000           1.000       5.055e-04         -0.0000
 184       2.221e-01      -2.324e-01      -3.730e-09           0.000           0.000           1.000       8.098e-04          0.0000
 185       2.044e-01      -2.324e-01       2.181e-08          -0.000          -0.000           1.000       1.067e-03         -0.0000
 186       1.818e-01      -2.324e-01       3.641e-08           0.000           0.000           1.000       1.262e-03         -0.0000
 187       1.555e-01      -2.324e-01       3.446e-07           0.000           0.000           1.000       1.384e-03          0.0001
 188       1.272e-01      -2.324e-01       9.930e-07           0.000           0.000           1.000       1.426e-03          0.0003
 189       9.851e-02      -2.324e-01      -1.336e-08          -0.000          -0.000           1.000       1.384e-03         -0.0009
 190       7.104e-02      -2.324e-01      -1.739e-06           0.000           0.000           1.000       1.262e-03          0.0008
 191       4.642e-02      -2.324e-01       2.241e-06          -0.000           0.000           1.000       1.067e-03         -0.0001
 192       2.607e-02      -2.324e-01      -2.672e-07          -0.000           0.000           1.000       8.098e-04         -0.0003
 193       1.118e-02      -2.324e-01      -8.133e-07           0.000          -0.000           1.000       5.055e-04         -0.0002
 194       2.615e-03      -2.324e-01      -4.842e-07           0.000           0.000           1.000       1.718e-04          0.0007
Strip 16
 195       2.391e-01      -1.825e-01       3.006e-09           0.000           0.000           1.000       1.768e-04          0.0000
 196       2.339e-01      -1.825e-01       5.410e-09          -0.000           0.000           1.000       5.201e-04         -0.0000
 197       2.221e-01      -1.825e-01      -3.730e-09           0.000          -0.000           1.000       8.331e-04          0.0000
 198       2.044e-01      -1.825e-01       2.181e-08          -0.000           0.000           1.000       1.098e-03         -0.0000
 199       1.818e-01      -1.825e-01       3.641e-08           0.000           0.000           1.000       1.299e-03         -0.0000
 200       1.555e-01      -1.825e-01       3.446e-07           0.000           0.000           1.000       1.424e-03          0.0001
 201       1.272e-01      -1.825e-01       9.930e-07           0.000           0.000           1.000       1.467e-03          0.0003
 202       9.851e-02      -1.825e-01      -1.336e-08          -0.000           0.000           1.000       1.424e-03         -0.0009
 203       7.104e-02      -1.825e-01      -1.739e-06           0.000           0.000           1.000       1.299e-03          0.0009
 204       4.642e-02      -1.825e-01       2.241e-06          -0.000          -0.000           1.000       1.098e-03         -0.0001
 205       2.607e-02      -1.825e-01      -2.672e-07          -0.000           0.000           1.000       8.331e-04         -0.0003
 206       1.118e-02      -1.825e-01      -8.133e-07           0.000           0.000           1.000       5.201e-04         -0.0002
 207       2.615e-03      -1.825e-01      -4.842e-07           0.000           0.000           1.000       1.768e-04          0.0007
Strip 17
 208       2.391e-01      -1.312e-01       3.006e-09           0.000           0.000           1.000       1.805e-04          0.0000
 209       2.339e-01      -1.312e-01       5.410e-09          -0.000           0.000           1.000       5.311e-04         -0.0000
 210       2.221e-01      -1.312e-01      -3.730e-09           0.000           0.000           1.000       8.508e-04          0.0000
 211       2.044e-01      -1.312e-01       2.181e-08          -0.000           0.000           1.000       1.121e-03         -0.0000
 212       1.818e-01      -1.312e-01       3.641e-08           0.000          -0.000           1.000       1.326e-03         -0.0000
 213       1.555e-01      -1.312e-01       3.446e-07           0.000           0.000           1.000       1.454e-03          0.0001
 214       1.272e-01      -1.312e-01       9.930e-07           0.000           0.000           1.000       1.498e-03          0.0003
 215       9.851e-02      -1.312e-01      -1.336e-08          -0.000           0.000           1.000       1.454e-03         -0.0009
 216       7.104e-02      -1.312e-01      -1.739e-06           0.000           0.000           1.000       1.326e-03          0.0009
 217       4.642e-02      -1.312e-01       2.241e-06          -0.000           0.000           1.000       1.121e-03         -0.0001
 218       2.607e-02      -1.312e-01      -2.672e-07          -0.000          -0.000           1.000       8.508e-04         -0.0003
 219       1.118e-02      -1.312e-01      -8.133e-07           0.000          -0.000           1.000       5.311e-04         -0.0002
 220       2.615e-03      -1.312e-01      -4.842e-07           0.000           0.000           1.000       1.805e-04          0.0007
Strip 18
 221       2.391e-01      -7.910e-02       3.006e-09           0.000           0.000           1.000       1.830e-04          0.0000
 222       2.339e-01      -7.910e-02       5.410e-09          -0.000           0.000           1.000       5.385e-04         -0.0000
 223       2.221e-01      -7.910e-02      -3.730e-09           0.000           0.000           1.000       8.626e-04          0.0000
 224       2.044e-01      -7.910e-02       2.181e-08          -0.000          -0.000           1.000       1.137e-03         -0.0000
 225       1.818e-01      -7.910e-02       3.641e-08           0.000           0.000           1.000       1.345e-03         -0.0000
 226       1.555e-01      -7.910e-02       3.446e-07           0.000           0.000           1.000       1.474e-03          0.0001
 227       1.272e-01      -7.910e-02       9.930e-07           0.000          -0.000           1.000       1.518e-03          0.0003
 228       9.851e-02      -7.910e-02      -1.336e-08          -0.000           0.000           1.000       1.474e-03         -0.0009
 229       7.104e-02      -7.910e-02      -1.739e-06           0.000           0.000           1.000       1.345e-03          0.0009
 230       4.642e-02      -7.910e-02       2.241e-06          -0.000          -0.000           1.000       1.137e-03         -0.0001
 231       2.607e-02      -7.910e-02      -2.672e-07          -0.000          -0.000           1.000       8.626e-04         -0.0003
 232       1.118e-02      -7.910e-02      -8.133e-07           0.000           0.000           1.000       5.385e-04         -0.0002
 233       2.615e-03      -7.910e-02      -4.842e-07           0.000           0.000           1.000       1.830e-04          0.0007
Strip 19
 234       2.391e-01      -2.643e-02       3.006e-09           0.000           0.000           1.000       1.843e-04          0.0000
 235       2.339e-01      -2.643e-02       5.410e-09          -0.000           0.000           1.000       5.422e-04         -0.0000
 236       2.221e-01      -2.643e-02      -3.730e-09           0.000           0.000           1.000       8.685e-04          0.0000
 237       2.044e-01      -2.643e-02       2.181e-08          -0.000           0.000           1.000       1.144e-03         -0.0000
 238       1.818e-01      -2.643e-02       3.641e-08           0.000           0.000           1.000       1.354e-03         -0.0000
 239       1.555e-01      -2.643e-02       3.446e-07           0.000           0.000           1.000       1.484e-03          0.0001
 240       1.272e-01      -2.643e-02       9.930e-07           0.000           0.000           1.000       1.529e-03          0.0003
 241       9.851e-02      -2.643e-02      -1.336e-08          -0.000          -0.000           1.000       1.484e-03         -0.0009
 242       7.104e-02      -2.643e-02      -1.739e-06           0.000           0.000           1.000       1.354e-03          0.0009
 243       4.642e-02      -2.643e-02       2.241e-06          -0.000           0.000           1.000       1.144e-03         -0.0001
 244       2.607e-02      -2.643e-02      -2.672e-07          -0.000           0.000           1.000       8.685e-04         -0.0003
 245       1.118e-02      -2.643e-02      -8.133e-07           0.000           0.000           1.000       5.422e-04         -0.0002
 246       2.615e-03      -2.643e-02      -4.842e-07           0.000           0.000           1.000       1.843e-04          0.0007
Strip 20
 247       2.391e-01       2.643e-02       3.006e-09           0.000           0.000           1.000       1.843e-04          0.0000
 248       2.339e-01       2.643e-02       5.410e-09          -0.000           0.000           1.000       5.422e-04         -0.0000
 249       2.221e-01       2.643e-02      -3.730e-09           0.000           0.000           1.000       8.685e-04          0.0000
 250       2.044e-01       2.643e-02       2.181e-08          -0.000          -0.000           1.000       1.144e-03         -0.0000
 251       1.818e-01       2.643e-02       3.641e-08           0.000           0.000           1.000       1.354e-03         -0.0000
 252       1.555e-01       2.643e-02       3.446e-07           0.000           0.000           1.000       1.484e-03          0.0001
 253       1.272e-01       2.643e-02       9.930e-07           0.000           0.000           1.000       1.529e-03          0.0003
 254       9.851e-02       2.643e-02      -1.336e-08          -0.000           0.000           1.000       1.484e-03         -0.0009
 255       7.104e-02       2.643e-02      -1.739e-06           0.000           0.000           1.000       1.354e-03          0.0009
 256       4.642e-02       2.643e-02       2.241e-06          -0.000           0.000           1.000       1.144e-03         -0.0001
 257       2.607e-02       2.643e-02      -2.672e-07          -0.000           0.000           1.000       8.685e-04         -0.0003
 258       1.118e-02       2.643e-02      -8.133e-07           0.000           0.000           1.000       5.422e-04         -0.0002
 259       2.615e-03       2.643e-02      -4.842e-07           0.000           0.000           1.000       1.843e-04          0.0007
Strip 21
 260       2.391e-01       7.910e-02       3.006e-09           0.000           0.000           1.000       1.830e-04          0.0000
 261       2.339e-01       7.910e-02       5.410e-09          -0.000          -0.000           1.000       5.385e-04         -0.0000
 262       2.221e-01       7.910e-02      -3.730e-09           0.000           0.000           1.000       8.626e-04          0.0000
 263       2.044e-01       7.910e-02       2.181e-08          -0.000           0.000           1.000       1.137e-03         -0.0000
 264       1.818e-01       7.910e-02       3.641e-08           0.000          -0.000           1.000       1.345e-03         -0.0000
 265       1.555e-01       7.910e-02       3.446e-07           0.000           0.000           1.000       1.474e-03          0.0001
 266       1.272e-01       7.910e-02       9.930e-07           0.000           0.000           1.000       1.518e-03          0.0003
 267       9.851e-02       7.910e-02      -1.336e-08          -0.000          -0.000           1.000       1.474e-03         -0.0009
 268       7.104e-02       7.910e-02      -1.739e-06           0.000           0.000           1.000       1.345e-03          0.0009
 269       4.642e-02       7.910e-02       2.241e-06          -0.000           0.000           1.000       1.137e-03         -0.0001
 270       2.607e-02       7.910e-02      -2.672e-07          -0.000           0.000           1.000       8.626e-04         -0.0003
 271       1.118e-02       7.910e-02      -8.133e-07           0.000          -0.000           1.000       5.385e-04         -0.0002
 272       2.615e-03       7.910e-02      -4.842e-07           0.000           0.000           1.000       1.830e-04          0.0007
Strip 22
 273       2.391e-01       1.312e-01       3.006e-09           0.000           0.000           1.000       1.805e-04          0.0000
 274       2.339e-01       1.312e-01       5.410e-09          -0.000           0.000           1.000       5.311e-04         -0.0000
 275       2.221e-01       1.312e-01      -3.730e-09           0.000          -0.000           1.000       8.508e-04          0.0000
 276       2.044e-01       1.312e-01       2.181e-08          -0.000           0.000           1.000       1.121e-03         -0.0000
 277       1.818e-01       1.312e-01       3.641e-08           0.000          -0.000           1.000       1.326e-03         -0.0000
 278       1.555e-01       1.312e-01       3.446e-07           0.000           0.000           1.000       1.454e-03          0.0001
 279       1.272e-01       1.312e-01       9.930e-07           0.000          -0.000           1.000       1.498e-03          0.0003
 280       9.851e-02       1.312e-01      -1.336e-08          -0.000           0.000           1.000       1.454e-03         -0.0009
 281       7.104e-02       1.312e-01      -1.739e-06           0.000          -0.000           1.000       1.326e-03          0.0009
 282       4.642e-02       1.312e-01       2.241e-06          -0.000           0.000           1.000       1.121e-03         -0.0001
 283       2.607e-02       1.312e-01      -2.672e-07          -0.000           0.000           1.000       8.508e-04         -0.0003
 284       1.118e-02       1.312e-01      -8.133e-07           0.000           0.000           1.000       5.311e-04         -0.0002
 285       2.615e-03       1.312e-01      -4.842e-07           0.000           0.000           1.000       1.805e-04          0.0007
Strip 23
 286       2.391e-01       1.825e-01       3.006e-09           0.000           0.000           1.000       1.768e-04          0.0000
 287       2.339e-01       1.825e-01       5.410e-09          -0.000           0.000           1.000       5.201e-04         -0.0000
 288       2.221e-01       1.825e-01      -3.730e-09           0.000           0.000           1.000       8.331e-04          0.0000
 289       2.044e-01       1.825e-01       2.181e-08          -0.000          -0.000           1.000       1.098e-03         -0.0000
 290       1.818e-01       1.825e-01       3.641e-08           0.000           0.000           1.000       1.299e-03         -0.0000
 291       1.555e-01       1.825e-01       3.446e-07           0.000           0.000           1.000       1.424e-03          0.0001
 292       1.272e-01       1.825e-01       9.930e-07           0.000           0.000           1.000       1.467e-03          0.0003
 293       9.851e-02       1.825e-01      -1.336e-08          -0.000          -0.000           1.000       1.424e-03         -0.0009
 294       7.104e-02       1.825e-01      -1.739e-06           0.000           0.000           1.000       1.299e-03          0.0009
 295       4.642e-02       1.825e-01       2.241e-06          -0.000           0.000           1.000       1.098e-03         -0.0001
 296       2.607e-02       1.825e-01      -2.672e-07          -0.000           0.000           1.000       8.331e-04         -0.0003
 297       1.118e-02       1.825e-01      -8.133e-07           0.000          -0.000           1.000       5.201e-04         -0.0002
 298       2.615e-03       1.825e-01      -4.842e-07           0.000           0.000           1.000       1.768e-04          0.0007
Strip 24
 299       2.391e-01       2.324e-01       3.006e-09           0.000           0.000           1.000       1.718e-04          0.0000
 300       2.339e-01       2.324e-01       5.410e-09          -0.000           0.000           1.000       5.055e-04         -0.0000
 301       2.221e-01       2.324e-01      -3.730e-09           0.000           0.000           1.000       8.098e-04          0.0000
 302       2.044e-01       2.324e-01       2.181e-08          -0.000           0.000           1.000       1.067e-03         -0.0000
 303       1.818e-01       2.324e-01       3.641e-08           0.000          -0.000           1.000       1.262e-03         -0.0000
 304       1.555e-01       2.324e-01       3.446e-07           0.000           0.000           1.000       1.384e-03          0.0001
 305       1.272e-01       2.324e-01       9.930e-07           0.000           0.000           1.000       1.426e-03          0.0003
 306       9.851e-02       2.324e-01      -1.336e-08          -0.000          -0.000           1.000       1.384e-03         -0.0009
 307       7.104e-02       2.324e-01      -1.739e-06           0.000           0.000           1.000       1.262e-03          0.0008
 308       4.642e-02       2.324e-01       2.241e-06          -0.000           0.000           1.000       1.067e-03         -0.0001
 309       2.607e-02       2.324e-01      -2.672e-07          -0.000           0.000           1.000       8.098e-04         -0.0003
 310       1.118e-02       2.324e-01      -8.133e-07           0.000           0.000           1.000       5.055e-04         -0.0002
 311       2.615e-03       2.324e-01      -4.842e-07           0.000           0.000           1.000       1.718e-04          0.0007
Strip 25
 312       2.391e-01       2.808e-01       3.006e-09           0.000           0.000           1.000       1.657e-04          0.0000
 313       2.339e-01       2.808e-01       5.410e-09          -0.000           0.000           1.000       4.875e-04         -0.0000
 314       2.221e-01       2.808e-01      -3.730e-09           0.000          -0.000           1.000       7.809e-04          0.0000
 315       2.044e-01       2.808e-01       2.181e-08          -0.000           0.000           1.000       1.029e-03         -0.0000
 316       1.818e-01       2.808e-01       3.641e-08           0.000           0.000           1.000       1.217e-03         -0.0000
 317       1.555e-01       2.808e-01       3.446e-07           0.000           0.000           1.000       1.335e-03          0.0001
 318       1.272e-01       2.808e-01       9.930e-07           0.000          -0.000           1.000       1.375e-03          0.0003
 319       9.851e-02       2.808e-01      -1.336e-08          -0.000           0.000           1.000       1.335e-03         -0.0009
 320       7.104e-02       2.808e-01      -1.739e-06           0.000           0.000           1.000       1.217e-03          0.0008
 321       4.642e-02       2.808e-01       2.241e-06          -0.000           0.000           1.000       1.029e-03         -0.0001
 322       2.607e-02       2.808e-01      -2.672e-07          -0.000           0.000           1.000       7.809e-04         -0.0003
 323       1.118e-02       2.808e-01      -8.133e-07           0.000           0.000           1.000       4.875e-04         -0.0002
 324       2.615e-03       2.808e-01      -4.842e-07           0.000           0.000           1.000       1.657e-04          0.0007
Strip 26
 325       2.391e-01       3.273e-01       3.006e-09           0.000           0.000           1.000       1.585e-04          0.0000
 326       2.339e-01       3.273e-01       5.410e-09          -0.000           0.000           1.000       4.661e-04         -0.0000
 327       2.221e-01       3.273e-01      -3.730e-09           0.000           0.000           1.000       7.467e-04          0.0000
 328       2.044e-01       3.273e-01       2.181e-08          -0.000           0.000           1.000       9.839e-04         -0.0000
 329       1.818e-01       3.273e-01       3.641e-08           0.000           0.000           1.000       1.164e-03         -0.0000
 330       1.555e-01       3.273e-01       3.446e-07           0.000           0.000           1.000       1.276e-03          0.0001
 331       1.272e-01       3.273e-01       9.930e-07           0.000           0.000           1.000       1.315e-03          0.0003
 332       9.851e-02       3.273e-01      -1.336e-08          -0.000           0.000           1.000       1.276e-03         -0.0009
 333       7.104e-02       3.273e-01      -1.739e-06           0.000           0.000           1.000       1.164e-03          0.0008
 334       4.642e-02       3.273e-01       2.241e-06          -0.000          -0.000           1.000       9.839e-04         -0.0001
 335       2.607e-02       3.273e-01      -2.672e-07          -0.000          -0.000           1.000       7.467e-04         -0.0003
 336       1.118e-02       3.273e-01      -8.133e-07           0.000           0.000           1.000       4.661e-04         -0.0002
 337       2.615e-03       3.273e-01      -4.842e-07           0.000           0.000           1.000       1.585e-04          0.0007
Strip 27
 338       2.391e-01       3.716e-01       3.006e-09           0.000           0.000           1.000       1.501e-04          0.0000
 339       2.339e-01       3.716e-01       5.410e-09          -0.000           0.000           1.000       4.416e-04         -0.0000
 340       2.221e-01       3.716e-01      -3.730e-09           0.000           0.000           1.000       7.074e-04          0.0000
 341       2.044e-01       3.716e-01       2.181e-08          -0.000          -0.000           1.000       9.322e-04         -0.0000
 342       1.818e-01       3.716e-01       3.641e-08           0.000           0.000           1.000       1.103e-03         -0.0000
 343       1.555e-01       3.716e-01       3.446e-07           0.000           0.000           1.000       1.209e-03          0.0001
 344       1.272e-01       3.716e-01       9.930e-07           0.000           0.000           1.000       1.245e-03          0.0003
 345       9.851e-02       3.716e-01      -1.336e-08          -0.000           0.000           1.000       1.209e-03         -0.0009
 346       7.104e-02       3.716e-01      -1.739e-06           0.000           0.000           1.000       1.103e-03          0.0008
 347       4.642e-02       3.716e-01       2.241e-06          -0.000           0.000           1.000       9.322e-04         -0.0001
 348       2.607e-02       3.716e-01      -2.672e-07          -0.000           0.000           1.000       7.074e-04         -0.0003
 349       1.118e-02       3.716e-01      -8.133e-07           0.000          -0.000           1.000       4.416e-04         -0.0002
 350       2.615e-03       3.716e-01      -4.842e-07           0.000           0.000           1.000       1.501e-04          0.0007
Strip 28
 351       2.391e-01       4.133e-01       3.006e-09           0.000           0.000           1.000       1.407e-04          0.0000
 352       2.339e-01       4.133e-01       5.410e-09          -0.000           0.000           1.000       4.141e-04         -0.0000
 353       2.221e-01       4.133e-01      -3.730e-09           0.000          -0.000           1.000       6.633e-04          0.0000
 354       2.044e-01       4.133e-01       2.181e-08          -0.000           0.000           1.000       8.740e-04         -0.0000
 355       1.818e-01       4.133e-01       3.641e-08           0.000           0.000           1.000       1.034e-03         -0.0000
 356       1.555e-01       4.133e-01       3.446e-07           0.000           0.000           1.000       1.134e-03          0.0001
 357       1.272e-01       4.133e-01       9.930e-07           0.000           0.000           1.000       1.168e-03          0.0003
 358       9.851e-02       4.133e-01      -1.336e-08          -0.000          -0.000           1.000       1.134e-03         -0.0009
 359       7.104e-02       4.133e-01      -1.739e-06           0.000           0.000           1.000       1.034e-03          0.0008
 360       4.642e-02       4.133e-01       2.241e-06          -0.000           0.000           1.000       8.740e-04         -0.0001
 361       2.607e-02       4.133e-01      -2.672e-07          -0.000           0.000           1.000       6.633e-04         -0.0003
 362       1.118e-02       4.133e-01      -8.133e-07           0.000           0.000           1.000       4.141e-04         -0.0002
 363       2.615e-03       4.133e-01      -4.842e-07           0.000           0.000           1.000       1.407e-04          0.0007
Strip 29
 364       2.391e-01       4.522e-01       3.006e-09           0.000           0.000           1.000       1.304e-04          0.0000
 365       2.339e-01       4.522e-01       5.410e-09          -0.000           0.000           1.000       3.837e-04         -0.0000
 366       2.221e-01       4.522e-01      -3.730e-09           0.000          -0.000           1.000       6.147e-04          0.0000
 367       2.044e-01       4.522e-01       2.181e-08          -0.000           0.000           1.000       8.099e-04         -0.0000
 368       1.818e-01       4.522e-01       3.641e-08           0.000          -0.000           1.000       9.581e-04         -0.0000
 369       1.555e-01       4.522e-01       3.446e-07           0.000           0.000           1.000       1.051e-03          0.0001
 370       1.272e-01       4.522e-01       9.930e-07           0.000          -0.000           1.000       1.082e-03          0.0003
 371       9.851e-02       4.522e-01      -1.336e-08          -0.000           0.000           1.000       1.051e-03         -0.0009
 372       7.104e-02       4.522e-01      -1.739e-06           0.000           0.000           1.000       9.581e-04          0.0008
 373       4.642e-02       4.522e-01       2.241e-06          -0.000           0.000           1.000       8.099e-04         -0.0001
 374       2.607e-02       4.522e-01      -2.672e-07          -0.000           0.000           1.000       6.147e-04         -0.0003
 375       1.118e-02       4.522e-01      -8.133e-07           0.000           0.000           1.000       3.837e-04         -0.0002
 376       2.615e-03       4.522e-01      -4.842e-07           0.000           0.000           1.000       1.304e-04          0.0007
Strip 30
 377       2.391e-01       4.880e-01       3.006e-09           0.000           0.000           1.000       1.192e-04          0.0000
 378       2.339e-01       4.880e-01       5.410e-09          -0.000           0.000           1.000       3.507e-04         -0.0000
 379       2.221e-01       4.880e-01      -3.730e-09           0.000           0.000           1.000       5.618e-04          0.0000
 380       2.044e-01       4.880e-01       2.181e-08          -0.000          -0.000           1.000       7.403e-04         -0.0000
 381       1.818e-01       4.880e-01       3.641e-08           0.000           0.000           1.000       8.757e-04         -0.0000
 382       1.555e-01       4.880e-01       3.446e-07           0.000           0.000           1.000       9.602e-04          0.0001
 383       1.272e-01       4.880e-01       9.930e-07           0.000           0.000           1.000       9.890e-04          0.0003
 384       9.851e-02       4.880e-01      -1.336e-08          -0.000          -0.000           1.000       9.602e-04         -0.0009
 385       7.104e-02       4.880e-01      -1.739e-06           0.000           0.000           1.000       8.757e-04          0.0008
 386       4.642e-02       4.880e-01       2.241e-06          -0.000           0.000           1.000       7.403e-04         -0.0001
 387       2.607e-02       4.880e-01      -2.672e-07          -0.000           0.000           1.000       5.618e-04         -0.0003
 388       1.118e-02       4.880e-01      -8.133e-07           0.000          -0.000           1.000       3.507e-04         -0.0002
 389       2.615e-03       4.880e-01      -4.842e-07           0.000           0.000           1.000       1.192e-04          0.0007
Strip 31
 390       2.391e-01       5.204e-01       3.006e-09           0.000           0.000           1.000       1.072e-04          0.0000
 391       2.339e-01       5.204e-01       5.410e-09          -0.000           0.000           1.000       3.153e-04         -0.0000
 392       2.221e-01       5.204e-01      -3.730e-09           0.000           0.000           1.000       5.051e-04          0.0000
 393       2.044e-01       5.204e-01       2.181e-08          -0.000           0.000           1.000       6.656e-04         -0.0000
 394       1.818e-01       5.204e-01       3.641e-08           0.000          -0.000           1.000       7.873e-04         -0.0000
 395       1.555e-01       5.204e-01       3.446e-07           0.000           0.000           1.000       8.633e-04          0.0001
 396       1.272e-01       5.204e-01       9.930e-07           0.000          -0.000           1.000       8.892e-04          0.0003
 397       9.851e-02       5.204e-01      -1.336e-08          -0.000           0.000           1.000       8.633e-04         -0.0009
 398       7.104e-02       5.204e-01      -1.739e-06           0.000           0.000           1.000       7.873e-04          0.0008
 399       4.642e-02       5.204e-01       2.241e-06          -0.000          -0.000           1.000       6.656e-04         -0.0001
 400       2.607e-02       5.204e-01      -2.672e-07          -0.000          -0.000           1.000       5.051e-04         -0.0003
 401       1.118e-02       5.204e-01      -8.133e-07           0.000           0.000           1.000       3.153e-04         -0.0002
 402       2.615e-03       5.204e-01      -4.842e-07           0.000           0.000           1.000       1.072e-04          0.0007
Strip 32
 403       2.391e-01       5.493e-01       3.006e-09           0.000           0.000           1.000       9.442e-05          0.0000
 404       2.339e-01       5.493e-01       5.410e-09          -0.000           0.000           1.000       2.778e-04         -0.0000
 405       2.221e-01       5.493e-01      -3.730e-09           0.000           0.000           1.000       4.450e-04          0.0000
 406       2.044e-01       5.493e-01       2.181e-08          -0.000          -0.000           1.000       5.863e-04         -0.0000
 407       1.818e-01       5.493e-01       3.641e-08           0.000           0.000           1.000       6.936e-04         -0.0000
 408       1.555e-01       5.493e-01       3.446e-07           0.000           0.000           1.000       7.605e-04          0.0001
 409       1.272e-01       5.493e-01       9.930e-07           0.000          -0.000           1.000       7.833e-04          0.0003
 410       9.851e-02       5.493e-01      -1.336e-08          -0.000           0.000           1.000       7.605e-04         -0.0009
 411       7.104e-02       5.493e-01      -1.739e-06           0.000           0.000           1.000       6.936e-04          0.0008
 412       4.642e-02       5.493e-01       2.241e-06          -0.000           0.000           1.000       5.863e-04         -0.0001
 413       2.607e-02       5.493e-01      -2.672e-07          -0.000           0.000           1.000       4.450e-04         -0.0003
 414       1.118e-02       5.493e-01      -8.133e-07           0.000           0.000           1.000       2.778e-04         -0.0002
 415       2.615e-03       5.493e-01      -4.842e-07           0.000           0.000           1.000       9.442e-05          0.0007
Strip 33
 416       2.391e-01       5.745e-01       3.006e-09           0.000           0.000           1.000       8.101e-05          0.0000
 417       2.339e-01       5.745e-01       5.410e-09          -0.000           0.000           1.000       2.383e-04         -0.0000
 418       2.221e-01       5.745e-01      -3.730e-09           0.000           0.000           1.000       3.818e-04          0.0000
 419       2.044e-01       5.745e-01       2.181e-08          -0.000           0.000           1.000       5.030e-04         -0.0000
 420       1.818e-01       5.745e-01       3.641e-08           0.000           0.000           1.000       5.951e-04         -0.0000
 421       1.555e-01       5.745e-01       3.446e-07           0.000           0.000           1.000       6.525e-04          0.0001
 422       1.272e-01       5.745e-01       9.930e-07           0.000           0.000           1.000       6.721e-04          0.0003
 423       9.851e-02       5.745e-01      -1.336e-08          -0.000           0.000           1.000       6.525e-04         -0.0009
 424       7.104e-02       5.745e-01      -1.739e-06           0.000           0.000           1.000       5.951e-04          0.0008
 425       4.642e-02       5.745e-01       2.241e-06          -0.000           0.000           1.000       5.030e-04         -0.0001
 426       2.607e-02       5.745e-01      -2.672e-07          -0.000           0.000           1.000       3.818e-04         -0.0003
 427       1.118e-02       5.745e-01      -8.133e-07           0.000           0.000           1.000       2.383e-04         -0.0002
 428       2.615e-03       5.745e-01      -4.842e-07           0.000           0.000           1.000       8.101e-05          0.0007
Strip 34
 429       2.391e-01       5.957e-01       3.006e-09           0.000           0.000           1.000       6.705e-05          0.0000
 430       2.339e-01       5.957e-01       5.410e-09          -0.000           0.000           1.000       1.972e-04         -0.0000
 431       2.221e-01       5.957e-01      -3.730e-09           0.000           0.000           1.000       3.160e-04          0.0000
 432       2.044e-01       5.957e-01       2.181e-08          -0.000           0.000           1.000       4.164e-04         -0.0000
 433       1.818e-01       5.957e-01       3.641e-08           0.000           0.000           1.000       4.925e-04         -0.0000
 434       1.555e-01       5.957e-01       3.446e-07           0.000           0.000           1.000       5.401e-04          0.0001
 435       1.272e-01       5.957e-01       9.930e-07           0.000           0.000           1.000       5.562e-04          0.0003
 436       9.851e-02       5.957e-01      -1.336e-08          -0.000           0.000           1.000       5.401e-04         -0.0009
 437       7.104e-02       5.957e-01      -1.739e-06           0.000           0.000           1.000       4.925e-04          0.0008
 438       4.642e-02       5.957e-01       2.241e-06          -0.000           0.000           1.000       4.164e-04         -0.0001
 439       2.607e-02       5.957e-01      -2.672e-07          -0.000           0.000           1.000       3.160e-04         -0.0003
 440       1.118e-02       5.957e-01      -8.133e-07           0.000           0.000           1.000       1.972e-04         -0.0002
 441       2.615e-03       5.957e-01      -4.842e-07           0.000           0.000           1.000       6.705e-05          0.0007
Strip 35
 442       2.391e-01       6.129e-01       3.006e-09           0.000           0.000           1.000       5.263e-05          0.0000
 443       2.339e-01       6.129e-01       5.410e-09          -0.000           0.000           1.000       1.548e-04         -0.0000
 444       2.221e-01       6.129e-01      -3.730e-09           0.000           0.000           1.000       2.480e-04          0.0000
 445       2.044e-01       6.129e-01       2.181e-08          -0.000           0.000           1.000       3.268e-04         -0.0000
 446       1.818e-01       6.129e-01       3.641e-08           0.000           0.000           1.000       3.866e-04         -0.0000
 447       1.555e-01       6.129e-01       3.446e-07           0.000           0.000           1.000       4.239e-04          0.0001
 448       1.272e-01       6.129e-01       9.930e-07           0.000           0.000           1.000       4.366e-04          0.0003
 449       9.851e-02       6.129e-01      -1.336e-08          -0.000           0.000           1.000       4.239e-04         -0.0008
 450       7.104e-02       6.129e-01      -1.739e-06           0.000           0.000           1.000       3.866e-04          0.0008
 451       4.642e-02       6.129e-01       2.241e-06          -0.000           0.000           1.000       3.268e-04         -0.0001
 452       2.607e-02       6.129e-01      -2.672e-07          -0.000           0.000           1.000       2.480e-04         -0.0003
 453       1.118e-02       6.129e-01      -8.133e-07           0.000           0.000           1.000       1.548e-04         -0.0002
 454       2.615e-03       6.129e-01      -4.842e-07           0.000           0.000           1.000       5.263e-05          0.0007
Strip 36
 455       2.391e-01       6.258e-01       3.006e-09           0.000           0.000           1.000       3.785e-05          0.0000
 456       2.339e-01       6.258e-01       5.410e-09          -0.000           0.000           1.000       1.114e-04         -0.0000
 457       2.221e-01       6.258e-01      -3.730e-09           0.000           0.000           1.000       1.784e-04          0.0000
 458       2.044e-01       6.258e-01       2.181e-08          -0.000           0.000           1.000       2.351e-04         -0.0000
 459       1.818e-01       6.258e-01       3.641e-08           0.000           0.000           1.000       2.781e-04         -0.0000
 460       1.555e-01       6.258e-01       3.446e-07           0.000           0.000           1.000       3.049e-04          0.0001
 461       1.272e-01       6.258e-01       9.930e-07           0.000           0.000           1.000       3.140e-04          0.0003
 462       9.851e-02       6.258e-01      -1.336e-08          -0.000           0.000           1.000       3.049e-04         -0.0008
 463       7.104e-02       6.258e-01      -1.739e-06           0.000           0.000           1.000       2.781e-04          0.0008
 464       4.642e-02       6.258e-01       2.241e-06          -0.000           0.000           1.000       2.351e-04         -0.0001
 465       2.607e-02       6.258e-01      -2.672e-07          -0.000          -0.000           1.000       1.784e-04         -0.0002
 466       1.118e-02       6.258e-01      -8.133e-07           0.000          -0.000           1.000       1.114e-04         -0.0002
 467       2.615e-03       6.258e-01      -4.842e-07           0.000           0.000           1.000       3.785e-05          0.0007
Strip 37
 468       2.391e-01       6.345e-01       3.006e-09           0.000           0.000           1.000       2.281e-05          0.0000
 469       2.339e-01       6.345e-01       5.410e-09          -0.000           0.000           1.000       6.712e-05         -0.0000
 470       2.221e-01       6.345e-01      -3.730e-09           0.000           0.000           1.000       1.075e-04          0.0000
 471       2.044e-01       6.345e-01       2.181e-08          -0.000           0.000           1.000       1.417e-04         -0.0000
 472       1.818e-01       6.345e-01       3.641e-08           0.000           0.000           1.000       1.676e-04         -0.0000
 473       1.555e-01       6.345e-01       3.446e-07           0.000           0.000           1.000       1.838e-04          0.0001
 474       1.272e-01       6.345e-01       9.930e-07           0.000           0.000           1.000       1.893e-04          0.0002
 475       9.851e-02       6.345e-01      -1.336e-08          -0.000           0.000           1.000       1.838e-04         -0.0006
 476       7.104e-02       6.345e-01      -1.739e-06           0.000           0.000           1.000       1.676e-04          0.0006
 477       4.642e-02       6.345e-01       2.241e-06          -0.000           0.000           1.000       1.417e-04         -0.0001
 478       2.607e-02       6.345e-01      -2.672e-07          -0.000           0.000           1.000       1.075e-04         -0.0002
 479       1.118e-02       6.345e-01      -8.133e-07           0.000           0.000           1.000       6.712e-05         -0.0002
 480       2.615e-03       6.345e-01      -4.842e-07           0.000           0.000           1.000       2.281e-05          0.0007
Strip 38
 481       2.391e-01       6.389e-01       3.006e-09           0.000           0.000           1.000       7.622e-06          0.0000
 482       2.339e-01       6.389e-01       5.410e-09          -0.000           0.000           1.000       2.242e-05         -0.0000
 483       2.221e-01       6.389e-01      -3.730e-09           0.000           0.000           1.000       3.592e-05          0.0000
 484       2.044e-01       6.389e-01       2.181e-08          -0.000           0.000           1.000       4.733e-05         -0.0000
 485       1.818e-01       6.389e-01       3.641e-08           0.000           0.000           1.000       5.599e-05         -0.0000
 486       1.555e-01       6.389e-01       3.446e-07           0.000           0.000           1.000       6.140e-05          0.0000
 487       1.272e-01       6.389e-01       9.930e-07           0.000           0.000           1.000       6.324e-05          0.0001
 488       9.851e-02       6.389e-01      -1.336e-08          -0.000           0.000           1.000       6.140e-05         -0.0004
 489       7.104e-02       6.389e-01      -1.739e-06           0.000           0.000           1.000       5.599e-05          0.0004
 490       4.642e-02       6.389e-01       2.241e-06          -0.000           0.000           1.000       4.733e-05         -0.0001
 491       2.607e-02       6.389e-01      -2.672e-07          -0.000           0.000           1.000       3.592e-05         -0.0001
 492       1.118e-02       6.389e-01      -8.133e-07           0.000           0.000           1.000       2.242e-05         -0.0002
 493       2.615e-03       6.389e-01      -4.842e-07           0.000           0.000           1.000       7.622e-06          0.0005










