xflr5 v6.50

Plane Name
T1-44.0 m/s-VLM1
QInf  =   44.000000 m/s
Alpha =   -2.000000
Beta  =    0.000°
Phi   =    0.000°
Ctrl  =    0.000
CL    =   -0.143551
Cy    =    0.000000
Cd    =    0.008161     ICd   =    0.001211     PCd   =    0.006950
Cl   = -1.85469e-18
Cm   =   0.0342009
ICn   =   -0.000000     PCn   =   -0.000000 
XCP   =    0.057113     YCP   =    0.000000     ZCP   =   -0.000000  
XNP   =    0.000000
Bending =   -6.756116

Main Wing
  y-span        Chord      Ai         Cl        PCd          ICd        CmGeom    CmAirf@chord/4    XTrtop    XTrBot      XCP       BM
   -0.6389     0.2400     0.796   -0.021268    0.006903    0.000295    0.004017   -0.001360     0.6722    0.6629    0.1860    0.0000
   -0.6345     0.2400     0.786   -0.036594    0.006913    0.000502    0.006953   -0.002255     0.6754    0.6597    0.1884   -0.0001
   -0.6258     0.2400     0.770   -0.052608    0.006923    0.000707    0.010231   -0.002982     0.6788    0.6563    0.1933   -0.0008
   -0.6129     0.2400     0.749   -0.068095    0.006925    0.000890    0.013657   -0.003427     0.6823    0.6531    0.1997   -0.0039
   -0.5957     0.2400     0.723   -0.082705    0.006924    0.001044    0.017145   -0.003591     0.6856    0.6503    0.2066   -0.0131
   -0.5745     0.2400     0.694   -0.096225    0.006923    0.001165    0.020594   -0.003523     0.6887    0.6476    0.2134   -0.0341
   -0.5493     0.2400     0.661   -0.108516    0.006923    0.001253    0.023900   -0.003290     0.6915    0.6452    0.2197   -0.0750
   -0.5204     0.2400     0.627   -0.119505    0.006927    0.001308    0.026975   -0.002962     0.6941    0.6430    0.2252   -0.1462
   -0.4880     0.2400     0.592   -0.129177    0.006934    0.001335    0.029757   -0.002598     0.6965    0.6410    0.2299   -0.2600
   -0.4522     0.2400     0.558   -0.137565    0.006941    0.001340    0.032210   -0.002242     0.6985    0.6393    0.2337   -0.4305
   -0.4133     0.2400     0.526   -0.144742    0.006947    0.001328    0.034328   -0.001918     0.7002    0.6378    0.2367   -0.6727
   -0.3716     0.2400     0.497   -0.150799    0.006951    0.001307    0.036121   -0.001639     0.7017    0.6366    0.2391   -1.0018
   -0.3273     0.2400     0.471   -0.155838    0.006955    0.001280    0.037612   -0.001408     0.7029    0.6356    0.2410   -1.4326
   -0.2808     0.2400     0.448   -0.159956    0.006958    0.001252    0.038827   -0.001223     0.7039    0.6347    0.2424   -1.9789
   -0.2324     0.2400     0.430   -0.163244    0.006961    0.001225    0.039794   -0.001077     0.7047    0.6340    0.2434   -2.6525
   -0.1825     0.2400     0.415   -0.165781    0.006963    0.001201    0.040538   -0.000968     0.7053    0.6335    0.2442   -3.4626
   -0.1312     0.2400     0.404   -0.167628    0.006964    0.001183    0.041077   -0.000891     0.7058    0.6331    0.2447   -4.4154
   -0.0791     0.2400     0.397   -0.168833    0.006965    0.001170    0.041428   -0.000841     0.7060    0.6329    0.2450   -5.5136
   -0.0264     0.2400     0.394   -0.169427    0.006966    0.001164    0.041601   -0.000816     0.7062    0.6328    0.2452   -6.7561
    0.0264     0.2400     0.394   -0.169427    0.006966    0.001164    0.041601   -0.000816     0.7062    0.6328    0.2452   -6.7561
    0.0791     0.2400     0.397   -0.168833    0.006965    0.001170    0.041428   -0.000841     0.7060    0.6329    0.2450   -5.5136
    0.1312     0.2400     0.404   -0.167628    0.006964    0.001183    0.041077   -0.000891     0.7058    0.6331    0.2447   -4.4154
    0.1825     0.2400     0.415   -0.165781    0.006963    0.001201    0.040538   -0.000968     0.7053    0.6335    0.2442   -3.4626
    0.2324     0.2400     0.430   -0.163244    0.006961    0.001225    0.039794   -0.001077     0.7047    0.6340    0.2434   -2.6525
    0.2808     0.2400     0.448   -0.159956    0.006958    0.001252    0.038827   -0.001223     0.7039    0.6347    0.2424   -1.9789
    0.3273     0.2400     0.471   -0.155838    0.006955    0.001280    0.037612   -0.001408     0.7029    0.6356    0.2410   -1.4326
    0.3716     0.2400     0.497   -0.150799    0.006951    0.001307    0.036121   -0.001639     0.7017    0.6366    0.2391   -1.0018
    0.4133     0.2400     0.526   -0.144742    0.006947    0.001328    0.034328   -0.001918     0.7002    0.6378    0.2367   -0.6727
    0.4522     0.2400     0.558   -0.137565    0.006941    0.001340    0.032210   -0.002242     0.6985    0.6393    0.2337   -0.4305
    0.4880     0.2400     0.592   -0.129177    0.006934    0.001335    0.029757   -0.002598     0.6965    0.6410    0.2299   -0.2600
    0.5204     0.2400     0.627   -0.119505    0.006927    0.001308    0.026975   -0.002962     0.6941    0.6430    0.2252   -0.1462
    0.5493     0.2400     0.661   -0.108516    0.006923    0.001253    0.023900   -0.003290     0.6915    0.6452    0.2197   -0.0750
    0.5745     0.2400     0.694   -0.096225    0.006923    0.001165    0.020594   -0.003523     0.6887    0.6476    0.2134   -0.0341
    0.5957     0.2400     0.723   -0.082705    0.006924    0.001044    0.017145   -0.003591     0.6856    0.6503    0.2066   -0.0131
    0.6129     0.2400     0.749   -0.068095    0.006925    0.000890    0.013657   -0.003427     0.6823    0.6531    0.1997   -0.0039
    0.6258     0.2400     0.770   -0.052608    0.006923    0.000707    0.010231   -0.002982     0.6788    0.6563    0.1933   -0.0008
    0.6345     0.2400     0.786   -0.036594    0.006913    0.000502    0.006953   -0.002255     0.6754    0.6597    0.1884   -0.0001
    0.6389     0.2400     0.796   -0.021268    0.006903    0.000295    0.004017   -0.001360     0.6722    0.6629    0.1860    0.0000


Main Wing Cp Coefficients
 Panel     CtrlPt.x        CtrlPt.y        CtrlPt.z       Nx      Ny       Nz        Area       Cp
Main WingCp Coefficients
Strip 1
   0       2.391e-01      -6.389e-01       3.006e-09           0.000           0.000           1.000       7.622e-06         -0.0016
   1       2.339e-01      -6.389e-01       5.410e-09          -0.000           0.000           1.000       2.242e-05         -0.0025
   2       2.221e-01      -6.389e-01      -3.730e-09           0.000           0.000           1.000       3.592e-05         -0.0035
   3       2.044e-01      -6.389e-01       2.181e-08          -0.000           0.000           1.000       4.733e-05         -0.0047
   4       1.818e-01      -6.389e-01       3.641e-08           0.000           0.000           1.000       5.599e-05         -0.0060
   5       1.555e-01      -6.389e-01       3.446e-07           0.000           0.000           1.000       6.140e-05         -0.0077
   6       1.272e-01      -6.389e-01       9.930e-07           0.000           0.000           1.000       6.324e-05         -0.0099
   7       9.851e-02      -6.389e-01      -1.336e-08          -0.000           0.000           1.000       6.140e-05         -0.0137
   8       7.104e-02      -6.389e-01      -1.739e-06           0.000           0.000           1.000       5.599e-05         -0.0180
   9       4.642e-02      -6.389e-01       2.241e-06          -0.000           0.000           1.000       4.733e-05         -0.0271
  10       2.607e-02      -6.389e-01      -2.672e-07          -0.000           0.000           1.000       3.592e-05         -0.0449
  11       1.118e-02      -6.389e-01      -8.133e-07           0.000           0.000           1.000       2.242e-05         -0.0938
  12       2.615e-03      -6.389e-01      -4.842e-07           0.000           0.000           1.000       7.622e-06         -0.3233
Strip 2
  13       2.391e-01      -6.345e-01       3.006e-09           0.000           0.000           1.000       2.281e-05         -0.0025
  14       2.339e-01      -6.345e-01       5.410e-09          -0.000           0.000           1.000       6.712e-05         -0.0043
  15       2.221e-01      -6.345e-01      -3.730e-09           0.000           0.000           1.000       1.075e-04         -0.0060
  16       2.044e-01      -6.345e-01       2.181e-08          -0.000           0.000           1.000       1.417e-04         -0.0080
  17       1.818e-01      -6.345e-01       3.641e-08           0.000           0.000           1.000       1.676e-04         -0.0104
  18       1.555e-01      -6.345e-01       3.446e-07           0.000           0.000           1.000       1.838e-04         -0.0133
  19       1.272e-01      -6.345e-01       9.930e-07           0.000           0.000           1.000       1.893e-04         -0.0172
  20       9.851e-02      -6.345e-01      -1.336e-08          -0.000           0.000           1.000       1.838e-04         -0.0238
  21       7.104e-02      -6.345e-01      -1.739e-06           0.000           0.000           1.000       1.676e-04         -0.0315
  22       4.642e-02      -6.345e-01       2.241e-06          -0.000           0.000           1.000       1.417e-04         -0.0478
  23       2.607e-02      -6.345e-01      -2.672e-07          -0.000           0.000           1.000       1.075e-04         -0.0801
  24       1.118e-02      -6.345e-01      -8.133e-07           0.000           0.000           1.000       6.712e-05         -0.1702
  25       2.615e-03      -6.345e-01      -4.842e-07           0.000           0.000           1.000       2.281e-05         -0.5008
Strip 3
  26       2.391e-01      -6.258e-01       3.006e-09           0.000           0.000           1.000       3.785e-05         -0.0035
  27       2.339e-01      -6.258e-01       5.410e-09          -0.000           0.000           1.000       1.114e-04         -0.0060
  28       2.221e-01      -6.258e-01      -3.730e-09           0.000           0.000           1.000       1.784e-04         -0.0087
  29       2.044e-01      -6.258e-01       2.181e-08          -0.000           0.000           1.000       2.351e-04         -0.0117
  30       1.818e-01      -6.258e-01       3.641e-08           0.000           0.000           1.000       2.781e-04         -0.0153
  31       1.555e-01      -6.258e-01       3.446e-07           0.000           0.000           1.000       3.049e-04         -0.0196
  32       1.272e-01      -6.258e-01       9.930e-07           0.000           0.000           1.000       3.140e-04         -0.0254
  33       9.851e-02      -6.258e-01      -1.336e-08          -0.000           0.000           1.000       3.049e-04         -0.0351
  34       7.104e-02      -6.258e-01      -1.739e-06           0.000           0.000           1.000       2.781e-04         -0.0472
  35       4.642e-02      -6.258e-01       2.241e-06          -0.000           0.000           1.000       2.351e-04         -0.0720
  36       2.607e-02      -6.258e-01      -2.672e-07          -0.000           0.000           1.000       1.784e-04         -0.1212
  37       1.118e-02      -6.258e-01      -8.133e-07           0.000           0.000           1.000       1.114e-04         -0.2423
  38       2.615e-03      -6.258e-01      -4.842e-07           0.000           0.000           1.000       3.785e-05         -0.6439
Strip 4
  39       2.391e-01      -6.129e-01       3.006e-09           0.000           0.000           1.000       5.263e-05         -0.0044
  40       2.339e-01      -6.129e-01       5.410e-09          -0.000           0.000           1.000       1.548e-04         -0.0077
  41       2.221e-01      -6.129e-01      -3.730e-09           0.000          -0.000           1.000       2.480e-04         -0.0114
  42       2.044e-01      -6.129e-01       2.181e-08          -0.000           0.000           1.000       3.268e-04         -0.0156
  43       1.818e-01      -6.129e-01       3.641e-08           0.000          -0.000           1.000       3.866e-04         -0.0204
  44       1.555e-01      -6.129e-01       3.446e-07           0.000           0.000           1.000       4.239e-04         -0.0263
  45       1.272e-01      -6.129e-01       9.930e-07           0.000           0.000           1.000       4.366e-04         -0.0343
  46       9.851e-02      -6.129e-01      -1.336e-08          -0.000           0.000           1.000       4.239e-04         -0.0473
  47       7.104e-02      -6.129e-01      -1.739e-06           0.000           0.000           1.000       3.866e-04         -0.0643
  48       4.642e-02      -6.129e-01       2.241e-06          -0.000           0.000           1.000       3.268e-04         -0.0975
  49       2.607e-02      -6.129e-01      -2.672e-07          -0.000           0.000           1.000       2.480e-04         -0.1601
  50       1.118e-02      -6.129e-01      -8.133e-07           0.000           0.000           1.000       1.548e-04         -0.3005
  51       2.615e-03      -6.129e-01      -4.842e-07           0.000           0.000           1.000       5.263e-05         -0.7656
Strip 5
  52       2.391e-01      -5.957e-01       3.006e-09           0.000           0.000           1.000       6.705e-05         -0.0054
  53       2.339e-01      -5.957e-01       5.410e-09          -0.000           0.000           1.000       1.972e-04         -0.0095
  54       2.221e-01      -5.957e-01      -3.730e-09           0.000           0.000           1.000       3.160e-04         -0.0142
  55       2.044e-01      -5.957e-01       2.181e-08          -0.000           0.000           1.000       4.164e-04         -0.0195
  56       1.818e-01      -5.957e-01       3.641e-08           0.000          -0.000           1.000       4.925e-04         -0.0257
  57       1.555e-01      -5.957e-01       3.446e-07           0.000           0.000           1.000       5.401e-04         -0.0333
  58       1.272e-01      -5.957e-01       9.930e-07           0.000          -0.000           1.000       5.562e-04         -0.0437
  59       9.851e-02      -5.957e-01      -1.336e-08          -0.000           0.000           1.000       5.401e-04         -0.0600
  60       7.104e-02      -5.957e-01      -1.739e-06           0.000           0.000           1.000       4.925e-04         -0.0818
  61       4.642e-02      -5.957e-01       2.241e-06          -0.000           0.000           1.000       4.164e-04         -0.1220
  62       2.607e-02      -5.957e-01      -2.672e-07          -0.000           0.000           1.000       3.160e-04         -0.1935
  63       1.118e-02      -5.957e-01      -8.133e-07           0.000           0.000           1.000       1.972e-04         -0.3490
  64       2.615e-03      -5.957e-01      -4.842e-07           0.000           0.000           1.000       6.705e-05         -0.8713
Strip 6
  65       2.391e-01      -5.745e-01       3.006e-09           0.000           0.000           1.000       8.101e-05         -0.0064
  66       2.339e-01      -5.745e-01       5.410e-09          -0.000           0.000           1.000       2.383e-04         -0.0113
  67       2.221e-01      -5.745e-01      -3.730e-09           0.000           0.000           1.000       3.818e-04         -0.0171
  68       2.044e-01      -5.745e-01       2.181e-08          -0.000           0.000           1.000       5.030e-04         -0.0235
  69       1.818e-01      -5.745e-01       3.641e-08           0.000           0.000           1.000       5.951e-04         -0.0312
  70       1.555e-01      -5.745e-01       3.446e-07           0.000           0.000           1.000       6.525e-04         -0.0406
  71       1.272e-01      -5.745e-01       9.930e-07           0.000           0.000           1.000       6.721e-04         -0.0532
  72       9.851e-02      -5.745e-01      -1.336e-08          -0.000           0.000           1.000       6.525e-04         -0.0726
  73       7.104e-02      -5.745e-01      -1.739e-06           0.000           0.000           1.000       5.951e-04         -0.0985
  74       4.642e-02      -5.745e-01       2.241e-06          -0.000           0.000           1.000       5.030e-04         -0.1438
  75       2.607e-02      -5.745e-01      -2.672e-07          -0.000           0.000           1.000       3.818e-04         -0.2218
  76       1.118e-02      -5.745e-01      -8.133e-07           0.000           0.000           1.000       2.383e-04         -0.3903
  77       2.615e-03      -5.745e-01      -4.842e-07           0.000           0.000           1.000       8.101e-05         -0.9639
Strip 7
  78       2.391e-01      -5.493e-01       3.006e-09           0.000           0.000           1.000       9.442e-05         -0.0074
  79       2.339e-01      -5.493e-01       5.410e-09          -0.000           0.000           1.000       2.778e-04         -0.0132
  80       2.221e-01      -5.493e-01      -3.730e-09           0.000          -0.000           1.000       4.450e-04         -0.0200
  81       2.044e-01      -5.493e-01       2.181e-08          -0.000           0.000           1.000       5.863e-04         -0.0276
  82       1.818e-01      -5.493e-01       3.641e-08           0.000           0.000           1.000       6.936e-04         -0.0367
  83       1.555e-01      -5.493e-01       3.446e-07           0.000           0.000           1.000       7.605e-04         -0.0478
  84       1.272e-01      -5.493e-01       9.930e-07           0.000          -0.000           1.000       7.833e-04         -0.0625
  85       9.851e-02      -5.493e-01      -1.336e-08          -0.000           0.000           1.000       7.605e-04         -0.0846
  86       7.104e-02      -5.493e-01      -1.739e-06           0.000           0.000           1.000       6.936e-04         -0.1137
  87       4.642e-02      -5.493e-01       2.241e-06          -0.000           0.000           1.000       5.863e-04         -0.1627
  88       2.607e-02      -5.493e-01      -2.672e-07          -0.000           0.000           1.000       4.450e-04         -0.2458
  89       1.118e-02      -5.493e-01      -8.133e-07           0.000           0.000           1.000       2.778e-04         -0.4261
  90       2.615e-03      -5.493e-01      -4.842e-07           0.000           0.000           1.000       9.442e-05         -1.0453
Strip 8
  91       2.391e-01      -5.204e-01       3.006e-09           0.000           0.000           1.000       1.072e-04         -0.0085
  92       2.339e-01      -5.204e-01       5.410e-09          -0.000           0.000           1.000       3.153e-04         -0.0151
  93       2.221e-01      -5.204e-01      -3.730e-09           0.000           0.000           1.000       5.051e-04         -0.0228
  94       2.044e-01      -5.204e-01       2.181e-08          -0.000          -0.000           1.000       6.656e-04         -0.0316
  95       1.818e-01      -5.204e-01       3.641e-08           0.000           0.000           1.000       7.873e-04         -0.0420
  96       1.555e-01      -5.204e-01       3.446e-07           0.000           0.000           1.000       8.633e-04         -0.0547
  97       1.272e-01      -5.204e-01       9.930e-07           0.000           0.000           1.000       8.892e-04         -0.0713
  98       9.851e-02      -5.204e-01      -1.336e-08          -0.000          -0.000           1.000       8.633e-04         -0.0955
  99       7.104e-02      -5.204e-01      -1.739e-06           0.000           0.000           1.000       7.873e-04         -0.1269
 100       4.642e-02      -5.204e-01       2.241e-06          -0.000          -0.000           1.000       6.656e-04         -0.1788
 101       2.607e-02      -5.204e-01      -2.672e-07          -0.000           0.000           1.000       5.051e-04         -0.2664
 102       1.118e-02      -5.204e-01      -8.133e-07           0.000           0.000           1.000       3.153e-04         -0.4571
 103       2.615e-03      -5.204e-01      -4.842e-07           0.000           0.000           1.000       1.072e-04         -1.1166
Strip 9
 104       2.391e-01      -4.880e-01       3.006e-09           0.000           0.000           1.000       1.192e-04         -0.0095
 105       2.339e-01      -4.880e-01       5.410e-09          -0.000           0.000           1.000       3.507e-04         -0.0169
 106       2.221e-01      -4.880e-01      -3.730e-09           0.000           0.000           1.000       5.618e-04         -0.0256
 107       2.044e-01      -4.880e-01       2.181e-08          -0.000           0.000           1.000       7.403e-04         -0.0354
 108       1.818e-01      -4.880e-01       3.641e-08           0.000          -0.000           1.000       8.757e-04         -0.0470
 109       1.555e-01      -4.880e-01       3.446e-07           0.000          -0.000           1.000       9.602e-04         -0.0610
 110       1.272e-01      -4.880e-01       9.930e-07           0.000           0.000           1.000       9.890e-04         -0.0791
 111       9.851e-02      -4.880e-01      -1.336e-08          -0.000          -0.000           1.000       9.602e-04         -0.1050
 112       7.104e-02      -4.880e-01      -1.739e-06           0.000           0.000           1.000       8.757e-04         -0.1383
 113       4.642e-02      -4.880e-01       2.241e-06          -0.000          -0.000           1.000       7.403e-04         -0.1925
 114       2.607e-02      -4.880e-01      -2.672e-07          -0.000          -0.000           1.000       5.618e-04         -0.2840
 115       1.118e-02      -4.880e-01      -8.133e-07           0.000          -0.000           1.000       3.507e-04         -0.4840
 116       2.615e-03      -4.880e-01      -4.842e-07           0.000           0.000           1.000       1.192e-04         -1.1789
Strip 10
 117       2.391e-01      -4.522e-01       3.006e-09           0.000           0.000           1.000       1.304e-04         -0.0105
 118       2.339e-01      -4.522e-01       5.410e-09          -0.000           0.000           1.000       3.837e-04         -0.0186
 119       2.221e-01      -4.522e-01      -3.730e-09           0.000          -0.000           1.000       6.147e-04         -0.0281
 120       2.044e-01      -4.522e-01       2.181e-08          -0.000          -0.000           1.000       8.099e-04         -0.0389
 121       1.818e-01      -4.522e-01       3.641e-08           0.000           0.000           1.000       9.581e-04         -0.0515
 122       1.555e-01      -4.522e-01       3.446e-07           0.000           0.000           1.000       1.051e-03         -0.0666
 123       1.272e-01      -4.522e-01       9.930e-07           0.000           0.000           1.000       1.082e-03         -0.0860
 124       9.851e-02      -4.522e-01      -1.336e-08          -0.000           0.000           1.000       1.051e-03         -0.1132
 125       7.104e-02      -4.522e-01      -1.739e-06           0.000           0.000           1.000       9.581e-04         -0.1480
 126       4.642e-02      -4.522e-01       2.241e-06          -0.000           0.000           1.000       8.099e-04         -0.2041
 127       2.607e-02      -4.522e-01      -2.672e-07          -0.000           0.000           1.000       6.147e-04         -0.2990
 128       1.118e-02      -4.522e-01      -8.133e-07           0.000          -0.000           1.000       3.837e-04         -0.5072
 129       2.615e-03      -4.522e-01      -4.842e-07           0.000           0.000           1.000       1.304e-04         -1.2329
Strip 11
 130       2.391e-01      -4.133e-01       3.006e-09           0.000           0.000           1.000       1.407e-04         -0.0113
 131       2.339e-01      -4.133e-01       5.410e-09          -0.000           0.000           1.000       4.141e-04         -0.0201
 132       2.221e-01      -4.133e-01      -3.730e-09           0.000          -0.000           1.000       6.633e-04         -0.0304
 133       2.044e-01      -4.133e-01       2.181e-08          -0.000           0.000           1.000       8.740e-04         -0.0420
 134       1.818e-01      -4.133e-01       3.641e-08           0.000           0.000           1.000       1.034e-03         -0.0554
 135       1.555e-01      -4.133e-01       3.446e-07           0.000           0.000           1.000       1.134e-03         -0.0715
 136       1.272e-01      -4.133e-01       9.930e-07           0.000           0.000           1.000       1.168e-03         -0.0919
 137       9.851e-02      -4.133e-01      -1.336e-08          -0.000           0.000           1.000       1.134e-03         -0.1201
 138       7.104e-02      -4.133e-01      -1.739e-06           0.000           0.000           1.000       1.034e-03         -0.1561
 139       4.642e-02      -4.133e-01       2.241e-06          -0.000           0.000           1.000       8.740e-04         -0.2140
 140       2.607e-02      -4.133e-01      -2.672e-07          -0.000           0.000           1.000       6.633e-04         -0.3118
 141       1.118e-02      -4.133e-01      -8.133e-07           0.000           0.000           1.000       4.141e-04         -0.5271
 142       2.615e-03      -4.133e-01      -4.842e-07           0.000           0.000           1.000       1.407e-04         -1.2794
Strip 12
 143       2.391e-01      -3.716e-01       3.006e-09           0.000           0.000           1.000       1.501e-04         -0.0121
 144       2.339e-01      -3.716e-01       5.410e-09          -0.000           0.000           1.000       4.416e-04         -0.0214
 145       2.221e-01      -3.716e-01      -3.730e-09           0.000           0.000           1.000       7.074e-04         -0.0323
 146       2.044e-01      -3.716e-01       2.181e-08          -0.000          -0.000           1.000       9.322e-04         -0.0446
 147       1.818e-01      -3.716e-01       3.641e-08           0.000           0.000           1.000       1.103e-03         -0.0588
 148       1.555e-01      -3.716e-01       3.446e-07           0.000           0.000           1.000       1.209e-03         -0.0756
 149       1.272e-01      -3.716e-01       9.930e-07           0.000          -0.000           1.000       1.245e-03         -0.0968
 150       9.851e-02      -3.716e-01      -1.336e-08          -0.000           0.000           1.000       1.209e-03         -0.1259
 151       7.104e-02      -3.716e-01      -1.739e-06           0.000           0.000           1.000       1.103e-03         -0.1629
 152       4.642e-02      -3.716e-01       2.241e-06          -0.000          -0.000           1.000       9.322e-04         -0.2222
 153       2.607e-02      -3.716e-01      -2.672e-07          -0.000          -0.000           1.000       7.074e-04         -0.3226
 154       1.118e-02      -3.716e-01      -8.133e-07           0.000           0.000           1.000       4.416e-04         -0.5440
 155       2.615e-03      -3.716e-01      -4.842e-07           0.000           0.000           1.000       1.501e-04         -1.3190
Strip 13
 156       2.391e-01      -3.273e-01       3.006e-09           0.000           0.000           1.000       1.585e-04         -0.0127
 157       2.339e-01      -3.273e-01       5.410e-09          -0.000           0.000           1.000       4.661e-04         -0.0225
 158       2.221e-01      -3.273e-01      -3.730e-09           0.000           0.000           1.000       7.467e-04         -0.0340
 159       2.044e-01      -3.273e-01       2.181e-08          -0.000           0.000           1.000       9.839e-04         -0.0468
 160       1.818e-01      -3.273e-01       3.641e-08           0.000           0.000           1.000       1.164e-03         -0.0616
 161       1.555e-01      -3.273e-01       3.446e-07           0.000           0.000           1.000       1.276e-03         -0.0791
 162       1.272e-01      -3.273e-01       9.930e-07           0.000           0.000           1.000       1.315e-03         -0.1009
 163       9.851e-02      -3.273e-01      -1.336e-08          -0.000           0.000           1.000       1.276e-03         -0.1307
 164       7.104e-02      -3.273e-01      -1.739e-06           0.000           0.000           1.000       1.164e-03         -0.1685
 165       4.642e-02      -3.273e-01       2.241e-06          -0.000           0.000           1.000       9.839e-04         -0.2290
 166       2.607e-02      -3.273e-01      -2.672e-07          -0.000           0.000           1.000       7.467e-04         -0.3316
 167       1.118e-02      -3.273e-01      -8.133e-07           0.000           0.000           1.000       4.661e-04         -0.5582
 168       2.615e-03      -3.273e-01      -4.842e-07           0.000           0.000           1.000       1.585e-04         -1.3523
Strip 14
 169       2.391e-01      -2.808e-01       3.006e-09           0.000           0.000           1.000       1.657e-04         -0.0132
 170       2.339e-01      -2.808e-01       5.410e-09          -0.000           0.000           1.000       4.875e-04         -0.0234
 171       2.221e-01      -2.808e-01      -3.730e-09           0.000          -0.000           1.000       7.809e-04         -0.0353
 172       2.044e-01      -2.808e-01       2.181e-08          -0.000           0.000           1.000       1.029e-03         -0.0486
 173       1.818e-01      -2.808e-01       3.641e-08           0.000           0.000           1.000       1.217e-03         -0.0639
 174       1.555e-01      -2.808e-01       3.446e-07           0.000           0.000           1.000       1.335e-03         -0.0819
 175       1.272e-01      -2.808e-01       9.930e-07           0.000          -0.000           1.000       1.375e-03         -0.1042
 176       9.851e-02      -2.808e-01      -1.336e-08          -0.000           0.000           1.000       1.335e-03         -0.1345
 177       7.104e-02      -2.808e-01      -1.739e-06           0.000           0.000           1.000       1.217e-03         -0.1731
 178       4.642e-02      -2.808e-01       2.241e-06          -0.000           0.000           1.000       1.029e-03         -0.2346
 179       2.607e-02      -2.808e-01      -2.672e-07          -0.000           0.000           1.000       7.809e-04         -0.3390
 180       1.118e-02      -2.808e-01      -8.133e-07           0.000           0.000           1.000       4.875e-04         -0.5698
 181       2.615e-03      -2.808e-01      -4.842e-07           0.000           0.000           1.000       1.657e-04         -1.3798
Strip 15
 182       2.391e-01      -2.324e-01       3.006e-09           0.000           0.000           1.000       1.718e-04         -0.0136
 183       2.339e-01      -2.324e-01       5.410e-09          -0.000           0.000           1.000       5.055e-04         -0.0242
 184       2.221e-01      -2.324e-01      -3.730e-09           0.000           0.000           1.000       8.098e-04         -0.0364
 185       2.044e-01      -2.324e-01       2.181e-08          -0.000          -0.000           1.000       1.067e-03         -0.0501
 186       1.818e-01      -2.324e-01       3.641e-08           0.000           0.000           1.000       1.262e-03         -0.0657
 187       1.555e-01      -2.324e-01       3.446e-07           0.000           0.000           1.000       1.384e-03         -0.0841
 188       1.272e-01      -2.324e-01       9.930e-07           0.000           0.000           1.000       1.426e-03         -0.1068
 189       9.851e-02      -2.324e-01      -1.336e-08          -0.000          -0.000           1.000       1.384e-03         -0.1376
 190       7.104e-02      -2.324e-01      -1.739e-06           0.000           0.000           1.000       1.262e-03         -0.1767
 191       4.642e-02      -2.324e-01       2.241e-06          -0.000           0.000           1.000       1.067e-03         -0.2390
 192       2.607e-02      -2.324e-01      -2.672e-07          -0.000           0.000           1.000       8.098e-04         -0.3449
 193       1.118e-02      -2.324e-01      -8.133e-07           0.000          -0.000           1.000       5.055e-04         -0.5792
 194       2.615e-03      -2.324e-01      -4.842e-07           0.000           0.000           1.000       1.718e-04         -1.4019
Strip 16
 195       2.391e-01      -1.825e-01       3.006e-09           0.000           0.000           1.000       1.768e-04         -0.0139
 196       2.339e-01      -1.825e-01       5.410e-09          -0.000           0.000           1.000       5.201e-04         -0.0247
 197       2.221e-01      -1.825e-01      -3.730e-09           0.000          -0.000           1.000       8.331e-04         -0.0372
 198       2.044e-01      -1.825e-01       2.181e-08          -0.000           0.000           1.000       1.098e-03         -0.0512
 199       1.818e-01      -1.825e-01       3.641e-08           0.000           0.000           1.000       1.299e-03         -0.0671
 200       1.555e-01      -1.825e-01       3.446e-07           0.000           0.000           1.000       1.424e-03         -0.0858
 201       1.272e-01      -1.825e-01       9.930e-07           0.000           0.000           1.000       1.467e-03         -0.1088
 202       9.851e-02      -1.825e-01      -1.336e-08          -0.000           0.000           1.000       1.424e-03         -0.1400
 203       7.104e-02      -1.825e-01      -1.739e-06           0.000           0.000           1.000       1.299e-03         -0.1795
 204       4.642e-02      -1.825e-01       2.241e-06          -0.000          -0.000           1.000       1.098e-03         -0.2425
 205       2.607e-02      -1.825e-01      -2.672e-07          -0.000           0.000           1.000       8.331e-04         -0.3495
 206       1.118e-02      -1.825e-01      -8.133e-07           0.000           0.000           1.000       5.201e-04         -0.5865
 207       2.615e-03      -1.825e-01      -4.842e-07           0.000           0.000           1.000       1.768e-04         -1.4191
Strip 17
 208       2.391e-01      -1.312e-01       3.006e-09           0.000           0.000           1.000       1.805e-04         -0.0142
 209       2.339e-01      -1.312e-01       5.410e-09          -0.000           0.000           1.000       5.311e-04         -0.0251
 210       2.221e-01      -1.312e-01      -3.730e-09           0.000           0.000           1.000       8.508e-04         -0.0379
 211       2.044e-01      -1.312e-01       2.181e-08          -0.000           0.000           1.000       1.121e-03         -0.0520
 212       1.818e-01      -1.312e-01       3.641e-08           0.000          -0.000           1.000       1.326e-03         -0.0681
 213       1.555e-01      -1.312e-01       3.446e-07           0.000           0.000           1.000       1.454e-03         -0.0870
 214       1.272e-01      -1.312e-01       9.930e-07           0.000           0.000           1.000       1.498e-03         -0.1103
 215       9.851e-02      -1.312e-01      -1.336e-08          -0.000           0.000           1.000       1.454e-03         -0.1417
 216       7.104e-02      -1.312e-01      -1.739e-06           0.000           0.000           1.000       1.326e-03         -0.1815
 217       4.642e-02      -1.312e-01       2.241e-06          -0.000           0.000           1.000       1.121e-03         -0.2450
 218       2.607e-02      -1.312e-01      -2.672e-07          -0.000          -0.000           1.000       8.508e-04         -0.3528
 219       1.118e-02      -1.312e-01      -8.133e-07           0.000          -0.000           1.000       5.311e-04         -0.5918
 220       2.615e-03      -1.312e-01      -4.842e-07           0.000           0.000           1.000       1.805e-04         -1.4317
Strip 18
 221       2.391e-01      -7.910e-02       3.006e-09           0.000           0.000           1.000       1.830e-04         -0.0143
 222       2.339e-01      -7.910e-02       5.410e-09          -0.000           0.000           1.000       5.385e-04         -0.0254
 223       2.221e-01      -7.910e-02      -3.730e-09           0.000           0.000           1.000       8.626e-04         -0.0382
 224       2.044e-01      -7.910e-02       2.181e-08          -0.000          -0.000           1.000       1.137e-03         -0.0525
 225       1.818e-01      -7.910e-02       3.641e-08           0.000           0.000           1.000       1.345e-03         -0.0688
 226       1.555e-01      -7.910e-02       3.446e-07           0.000           0.000           1.000       1.474e-03         -0.0878
 227       1.272e-01      -7.910e-02       9.930e-07           0.000          -0.000           1.000       1.518e-03         -0.1112
 228       9.851e-02      -7.910e-02      -1.336e-08          -0.000           0.000           1.000       1.474e-03         -0.1428
 229       7.104e-02      -7.910e-02      -1.739e-06           0.000           0.000           1.000       1.345e-03         -0.1829
 230       4.642e-02      -7.910e-02       2.241e-06          -0.000          -0.000           1.000       1.137e-03         -0.2466
 231       2.607e-02      -7.910e-02      -2.672e-07          -0.000          -0.000           1.000       8.626e-04         -0.3550
 232       1.118e-02      -7.910e-02      -8.133e-07           0.000           0.000           1.000       5.385e-04         -0.5953
 233       2.615e-03      -7.910e-02      -4.842e-07           0.000           0.000           1.000       1.830e-04         -1.4400
Strip 19
 234       2.391e-01      -2.643e-02       3.006e-09           0.000           0.000           1.000       1.843e-04         -0.0144
 235       2.339e-01      -2.643e-02       5.410e-09          -0.000           0.000           1.000       5.422e-04         -0.0255
 236       2.221e-01      -2.643e-02      -3.730e-09           0.000           0.000           1.000       8.685e-04         -0.0384
 237       2.044e-01      -2.643e-02       2.181e-08          -0.000           0.000           1.000       1.144e-03         -0.0528
 238       1.818e-01      -2.643e-02       3.641e-08           0.000           0.000           1.000       1.354e-03         -0.0691
 239       1.555e-01      -2.643e-02       3.446e-07           0.000           0.000           1.000       1.484e-03         -0.0882
 240       1.272e-01      -2.643e-02       9.930e-07           0.000           0.000           1.000       1.529e-03         -0.1117
 241       9.851e-02      -2.643e-02      -1.336e-08          -0.000          -0.000           1.000       1.484e-03         -0.1433
 242       7.104e-02      -2.643e-02      -1.739e-06           0.000           0.000           1.000       1.354e-03         -0.1835
 243       4.642e-02      -2.643e-02       2.241e-06          -0.000           0.000           1.000       1.144e-03         -0.2474
 244       2.607e-02      -2.643e-02      -2.672e-07          -0.000           0.000           1.000       8.685e-04         -0.3561
 245       1.118e-02      -2.643e-02      -8.133e-07           0.000           0.000           1.000       5.422e-04         -0.5971
 246       2.615e-03      -2.643e-02      -4.842e-07           0.000           0.000           1.000       1.843e-04         -1.4441
Strip 20
 247       2.391e-01       2.643e-02       3.006e-09           0.000           0.000           1.000       1.843e-04         -0.0144
 248       2.339e-01       2.643e-02       5.410e-09          -0.000           0.000           1.000       5.422e-04         -0.0255
 249       2.221e-01       2.643e-02      -3.730e-09           0.000           0.000           1.000       8.685e-04         -0.0384
 250       2.044e-01       2.643e-02       2.181e-08          -0.000          -0.000           1.000       1.144e-03         -0.0528
 251       1.818e-01       2.643e-02       3.641e-08           0.000           0.000           1.000       1.354e-03         -0.0691
 252       1.555e-01       2.643e-02       3.446e-07           0.000           0.000           1.000       1.484e-03         -0.0882
 253       1.272e-01       2.643e-02       9.930e-07           0.000           0.000           1.000       1.529e-03         -0.1117
 254       9.851e-02       2.643e-02      -1.336e-08          -0.000           0.000           1.000       1.484e-03         -0.1433
 255       7.104e-02       2.643e-02      -1.739e-06           0.000           0.000           1.000       1.354e-03         -0.1835
 256       4.642e-02       2.643e-02       2.241e-06          -0.000           0.000           1.000       1.144e-03         -0.2474
 257       2.607e-02       2.643e-02      -2.672e-07          -0.000           0.000           1.000       8.685e-04         -0.3561
 258       1.118e-02       2.643e-02      -8.133e-07           0.000           0.000           1.000       5.422e-04         -0.5971
 259       2.615e-03       2.643e-02      -4.842e-07           0.000           0.000           1.000       1.843e-04         -1.4441
Strip 21
 260       2.391e-01       7.910e-02       3.006e-09           0.000           0.000           1.000       1.830e-04         -0.0143
 261       2.339e-01       7.910e-02       5.410e-09          -0.000          -0.000           1.000       5.385e-04         -0.0254
 262       2.221e-01       7.910e-02      -3.730e-09           0.000           0.000           1.000       8.626e-04         -0.0382
 263       2.044e-01       7.910e-02       2.181e-08          -0.000           0.000           1.000       1.137e-03         -0.0525
 264       1.818e-01       7.910e-02       3.641e-08           0.000          -0.000           1.000       1.345e-03         -0.0688
 265       1.555e-01       7.910e-02       3.446e-07           0.000           0.000           1.000       1.474e-03         -0.0878
 266       1.272e-01       7.910e-02       9.930e-07           0.000           0.000           1.000       1.518e-03         -0.1112
 267       9.851e-02       7.910e-02      -1.336e-08          -0.000          -0.000           1.000       1.474e-03         -0.1428
 268       7.104e-02       7.910e-02      -1.739e-06           0.000           0.000           1.000       1.345e-03         -0.1829
 269       4.642e-02       7.910e-02       2.241e-06          -0.000           0.000           1.000       1.137e-03         -0.2466
 270       2.607e-02       7.910e-02      -2.672e-07          -0.000           0.000           1.000       8.626e-04         -0.3550
 271       1.118e-02       7.910e-02      -8.133e-07           0.000          -0.000           1.000       5.385e-04         -0.5953
 272       2.615e-03       7.910e-02      -4.842e-07           0.000           0.000           1.000       1.830e-04         -1.4400
Strip 22
 273       2.391e-01       1.312e-01       3.006e-09           0.000           0.000           1.000       1.805e-04         -0.0142
 274       2.339e-01       1.312e-01       5.410e-09          -0.000           0.000           1.000       5.311e-04         -0.0251
 275       2.221e-01       1.312e-01      -3.730e-09           0.000          -0.000           1.000       8.508e-04         -0.0379
 276       2.044e-01       1.312e-01       2.181e-08          -0.000           0.000           1.000       1.121e-03         -0.0520
 277       1.818e-01       1.312e-01       3.641e-08           0.000          -0.000           1.000       1.326e-03         -0.0681
 278       1.555e-01       1.312e-01       3.446e-07           0.000           0.000           1.000       1.454e-03         -0.0870
 279       1.272e-01       1.312e-01       9.930e-07           0.000          -0.000           1.000       1.498e-03         -0.1103
 280       9.851e-02       1.312e-01      -1.336e-08          -0.000           0.000           1.000       1.454e-03         -0.1417
 281       7.104e-02       1.312e-01      -1.739e-06           0.000          -0.000           1.000       1.326e-03         -0.1815
 282       4.642e-02       1.312e-01       2.241e-06          -0.000           0.000           1.000       1.121e-03         -0.2450
 283       2.607e-02       1.312e-01      -2.672e-07          -0.000           0.000           1.000       8.508e-04         -0.3528
 284       1.118e-02       1.312e-01      -8.133e-07           0.000           0.000           1.000       5.311e-04         -0.5918
 285       2.615e-03       1.312e-01      -4.842e-07           0.000           0.000           1.000       1.805e-04         -1.4317
Strip 23
 286       2.391e-01       1.825e-01       3.006e-09           0.000           0.000           1.000       1.768e-04         -0.0139
 287       2.339e-01       1.825e-01       5.410e-09          -0.000           0.000           1.000       5.201e-04         -0.0247
 288       2.221e-01       1.825e-01      -3.730e-09           0.000           0.000           1.000       8.331e-04         -0.0372
 289       2.044e-01       1.825e-01       2.181e-08          -0.000          -0.000           1.000       1.098e-03         -0.0512
 290       1.818e-01       1.825e-01       3.641e-08           0.000           0.000           1.000       1.299e-03         -0.0671
 291       1.555e-01       1.825e-01       3.446e-07           0.000           0.000           1.000       1.424e-03         -0.0858
 292       1.272e-01       1.825e-01       9.930e-07           0.000           0.000           1.000       1.467e-03         -0.1088
 293       9.851e-02       1.825e-01      -1.336e-08          -0.000          -0.000           1.000       1.424e-03         -0.1400
 294       7.104e-02       1.825e-01      -1.739e-06           0.000           0.000           1.000       1.299e-03         -0.1795
 295       4.642e-02       1.825e-01       2.241e-06          -0.000           0.000           1.000       1.098e-03         -0.2425
 296       2.607e-02       1.825e-01      -2.672e-07          -0.000           0.000           1.000       8.331e-04         -0.3495
 297       1.118e-02       1.825e-01      -8.133e-07           0.000          -0.000           1.000       5.201e-04         -0.5865
 298       2.615e-03       1.825e-01      -4.842e-07           0.000           0.000           1.000       1.768e-04         -1.4191
Strip 24
 299       2.391e-01       2.324e-01       3.006e-09           0.000           0.000           1.000       1.718e-04         -0.0136
 300       2.339e-01       2.324e-01       5.410e-09          -0.000           0.000           1.000       5.055e-04         -0.0242
 301       2.221e-01       2.324e-01      -3.730e-09           0.000           0.000           1.000       8.098e-04         -0.0364
 302       2.044e-01       2.324e-01       2.181e-08          -0.000           0.000           1.000       1.067e-03         -0.0501
 303       1.818e-01       2.324e-01       3.641e-08           0.000          -0.000           1.000       1.262e-03         -0.0657
 304       1.555e-01       2.324e-01       3.446e-07           0.000           0.000           1.000       1.384e-03         -0.0841
 305       1.272e-01       2.324e-01       9.930e-07           0.000           0.000           1.000       1.426e-03         -0.1068
 306       9.851e-02       2.324e-01      -1.336e-08          -0.000          -0.000           1.000       1.384e-03         -0.1376
 307       7.104e-02       2.324e-01      -1.739e-06           0.000           0.000           1.000       1.262e-03         -0.1767
 308       4.642e-02       2.324e-01       2.241e-06          -0.000           0.000           1.000       1.067e-03         -0.2390
 309       2.607e-02       2.324e-01      -2.672e-07          -0.000           0.000           1.000       8.098e-04         -0.3449
 310       1.118e-02       2.324e-01      -8.133e-07           0.000           0.000           1.000       5.055e-04         -0.5792
 311       2.615e-03       2.324e-01      -4.842e-07           0.000           0.000           1.000       1.718e-04         -1.4019
Strip 25
 312       2.391e-01       2.808e-01       3.006e-09           0.000           0.000           1.000       1.657e-04         -0.0132
 313       2.339e-01       2.808e-01       5.410e-09          -0.000           0.000           1.000       4.875e-04         -0.0234
 314       2.221e-01       2.808e-01      -3.730e-09           0.000          -0.000           1.000       7.809e-04         -0.0353
 315       2.044e-01       2.808e-01       2.181e-08          -0.000           0.000           1.000       1.029e-03         -0.0486
 316       1.818e-01       2.808e-01       3.641e-08           0.000           0.000           1.000       1.217e-03         -0.0639
 317       1.555e-01       2.808e-01       3.446e-07           0.000           0.000           1.000       1.335e-03         -0.0819
 318       1.272e-01       2.808e-01       9.930e-07           0.000          -0.000           1.000       1.375e-03         -0.1042
 319       9.851e-02       2.808e-01      -1.336e-08          -0.000           0.000           1.000       1.335e-03         -0.1345
 320       7.104e-02       2.808e-01      -1.739e-06           0.000           0.000           1.000       1.217e-03         -0.1731
 321       4.642e-02       2.808e-01       2.241e-06          -0.000           0.000           1.000       1.029e-03         -0.2346
 322       2.607e-02       2.808e-01      -2.672e-07          -0.000           0.000           1.000       7.809e-04         -0.3390
 323       1.118e-02       2.808e-01      -8.133e-07           0.000           0.000           1.000       4.875e-04         -0.5698
 324       2.615e-03       2.808e-01      -4.842e-07           0.000           0.000           1.000       1.657e-04         -1.3798
Strip 26
 325       2.391e-01       3.273e-01       3.006e-09           0.000           0.000           1.000       1.585e-04         -0.0127
 326       2.339e-01       3.273e-01       5.410e-09          -0.000           0.000           1.000       4.661e-04         -0.0225
 327       2.221e-01       3.273e-01      -3.730e-09           0.000           0.000           1.000       7.467e-04         -0.0340
 328       2.044e-01       3.273e-01       2.181e-08          -0.000           0.000           1.000       9.839e-04         -0.0468
 329       1.818e-01       3.273e-01       3.641e-08           0.000           0.000           1.000       1.164e-03         -0.0616
 330       1.555e-01       3.273e-01       3.446e-07           0.000           0.000           1.000       1.276e-03         -0.0791
 331       1.272e-01       3.273e-01       9.930e-07           0.000           0.000           1.000       1.315e-03         -0.1009
 332       9.851e-02       3.273e-01      -1.336e-08          -0.000           0.000           1.000       1.276e-03         -0.1307
 333       7.104e-02       3.273e-01      -1.739e-06           0.000           0.000           1.000       1.164e-03         -0.1685
 334       4.642e-02       3.273e-01       2.241e-06          -0.000          -0.000           1.000       9.839e-04         -0.2290
 335       2.607e-02       3.273e-01      -2.672e-07          -0.000          -0.000           1.000       7.467e-04         -0.3316
 336       1.118e-02       3.273e-01      -8.133e-07           0.000           0.000           1.000       4.661e-04         -0.5582
 337       2.615e-03       3.273e-01      -4.842e-07           0.000           0.000           1.000       1.585e-04         -1.3523
Strip 27
 338       2.391e-01       3.716e-01       3.006e-09           0.000           0.000           1.000       1.501e-04         -0.0121
 339       2.339e-01       3.716e-01       5.410e-09          -0.000           0.000           1.000       4.416e-04         -0.0214
 340       2.221e-01       3.716e-01      -3.730e-09           0.000           0.000           1.000       7.074e-04         -0.0323
 341       2.044e-01       3.716e-01       2.181e-08          -0.000          -0.000           1.000       9.322e-04         -0.0446
 342       1.818e-01       3.716e-01       3.641e-08           0.000           0.000           1.000       1.103e-03         -0.0588
 343       1.555e-01       3.716e-01       3.446e-07           0.000           0.000           1.000       1.209e-03         -0.0756
 344       1.272e-01       3.716e-01       9.930e-07           0.000           0.000           1.000       1.245e-03         -0.0968
 345       9.851e-02       3.716e-01      -1.336e-08          -0.000           0.000           1.000       1.209e-03         -0.1259
 346       7.104e-02       3.716e-01      -1.739e-06           0.000           0.000           1.000       1.103e-03         -0.1629
 347       4.642e-02       3.716e-01       2.241e-06          -0.000           0.000           1.000       9.322e-04         -0.2222
 348       2.607e-02       3.716e-01      -2.672e-07          -0.000           0.000           1.000       7.074e-04         -0.3226
 349       1.118e-02       3.716e-01      -8.133e-07           0.000          -0.000           1.000       4.416e-04         -0.5440
 350       2.615e-03       3.716e-01      -4.842e-07           0.000           0.000           1.000       1.501e-04         -1.3190
Strip 28
 351       2.391e-01       4.133e-01       3.006e-09           0.000           0.000           1.000       1.407e-04         -0.0113
 352       2.339e-01       4.133e-01       5.410e-09          -0.000           0.000           1.000       4.141e-04         -0.0201
 353       2.221e-01       4.133e-01      -3.730e-09           0.000          -0.000           1.000       6.633e-04         -0.0304
 354       2.044e-01       4.133e-01       2.181e-08          -0.000           0.000           1.000       8.740e-04         -0.0420
 355       1.818e-01       4.133e-01       3.641e-08           0.000           0.000           1.000       1.034e-03         -0.0554
 356       1.555e-01       4.133e-01       3.446e-07           0.000           0.000           1.000       1.134e-03         -0.0715
 357       1.272e-01       4.133e-01       9.930e-07           0.000           0.000           1.000       1.168e-03         -0.0919
 358       9.851e-02       4.133e-01      -1.336e-08          -0.000          -0.000           1.000       1.134e-03         -0.1201
 359       7.104e-02       4.133e-01      -1.739e-06           0.000           0.000           1.000       1.034e-03         -0.1561
 360       4.642e-02       4.133e-01       2.241e-06          -0.000           0.000           1.000       8.740e-04         -0.2140
 361       2.607e-02       4.133e-01      -2.672e-07          -0.000           0.000           1.000       6.633e-04         -0.3118
 362       1.118e-02       4.133e-01      -8.133e-07           0.000           0.000           1.000       4.141e-04         -0.5271
 363       2.615e-03       4.133e-01      -4.842e-07           0.000           0.000           1.000       1.407e-04         -1.2794
Strip 29
 364       2.391e-01       4.522e-01       3.006e-09           0.000           0.000           1.000       1.304e-04         -0.0105
 365       2.339e-01       4.522e-01       5.410e-09          -0.000           0.000           1.000       3.837e-04         -0.0186
 366       2.221e-01       4.522e-01      -3.730e-09           0.000          -0.000           1.000       6.147e-04         -0.0281
 367       2.044e-01       4.522e-01       2.181e-08          -0.000           0.000           1.000       8.099e-04         -0.0389
 368       1.818e-01       4.522e-01       3.641e-08           0.000          -0.000           1.000       9.581e-04         -0.0515
 369       1.555e-01       4.522e-01       3.446e-07           0.000           0.000           1.000       1.051e-03         -0.0666
 370       1.272e-01       4.522e-01       9.930e-07           0.000          -0.000           1.000       1.082e-03         -0.0860
 371       9.851e-02       4.522e-01      -1.336e-08          -0.000           0.000           1.000       1.051e-03         -0.1132
 372       7.104e-02       4.522e-01      -1.739e-06           0.000           0.000           1.000       9.581e-04         -0.1480
 373       4.642e-02       4.522e-01       2.241e-06          -0.000           0.000           1.000       8.099e-04         -0.2041
 374       2.607e-02       4.522e-01      -2.672e-07          -0.000           0.000           1.000       6.147e-04         -0.2990
 375       1.118e-02       4.522e-01      -8.133e-07           0.000           0.000           1.000       3.837e-04         -0.5072
 376       2.615e-03       4.522e-01      -4.842e-07           0.000           0.000           1.000       1.304e-04         -1.2329
Strip 30
 377       2.391e-01       4.880e-01       3.006e-09           0.000           0.000           1.000       1.192e-04         -0.0095
 378       2.339e-01       4.880e-01       5.410e-09          -0.000           0.000           1.000       3.507e-04         -0.0169
 379       2.221e-01       4.880e-01      -3.730e-09           0.000           0.000           1.000       5.618e-04         -0.0256
 380       2.044e-01       4.880e-01       2.181e-08          -0.000          -0.000           1.000       7.403e-04         -0.0354
 381       1.818e-01       4.880e-01       3.641e-08           0.000           0.000           1.000       8.757e-04         -0.0470
 382       1.555e-01       4.880e-01       3.446e-07           0.000           0.000           1.000       9.602e-04         -0.0610
 383       1.272e-01       4.880e-01       9.930e-07           0.000           0.000           1.000       9.890e-04         -0.0791
 384       9.851e-02       4.880e-01      -1.336e-08          -0.000          -0.000           1.000       9.602e-04         -0.1050
 385       7.104e-02       4.880e-01      -1.739e-06           0.000           0.000           1.000       8.757e-04         -0.1383
 386       4.642e-02       4.880e-01       2.241e-06          -0.000           0.000           1.000       7.403e-04         -0.1925
 387       2.607e-02       4.880e-01      -2.672e-07          -0.000           0.000           1.000       5.618e-04         -0.2840
 388       1.118e-02       4.880e-01      -8.133e-07           0.000          -0.000           1.000       3.507e-04         -0.4840
 389       2.615e-03       4.880e-01      -4.842e-07           0.000           0.000           1.000       1.192e-04         -1.1789
Strip 31
 390       2.391e-01       5.204e-01       3.006e-09           0.000           0.000           1.000       1.072e-04         -0.0085
 391       2.339e-01       5.204e-01       5.410e-09          -0.000           0.000           1.000       3.153e-04         -0.0151
 392       2.221e-01       5.204e-01      -3.730e-09           0.000           0.000           1.000       5.051e-04         -0.0228
 393       2.044e-01       5.204e-01       2.181e-08          -0.000           0.000           1.000       6.656e-04         -0.0316
 394       1.818e-01       5.204e-01       3.641e-08           0.000          -0.000           1.000       7.873e-04         -0.0420
 395       1.555e-01       5.204e-01       3.446e-07           0.000           0.000           1.000       8.633e-04         -0.0547
 396       1.272e-01       5.204e-01       9.930e-07           0.000          -0.000           1.000       8.892e-04         -0.0713
 397       9.851e-02       5.204e-01      -1.336e-08          -0.000           0.000           1.000       8.633e-04         -0.0955
 398       7.104e-02       5.204e-01      -1.739e-06           0.000           0.000           1.000       7.873e-04         -0.1269
 399       4.642e-02       5.204e-01       2.241e-06          -0.000          -0.000           1.000       6.656e-04         -0.1788
 400       2.607e-02       5.204e-01      -2.672e-07          -0.000          -0.000           1.000       5.051e-04         -0.2664
 401       1.118e-02       5.204e-01      -8.133e-07           0.000           0.000           1.000       3.153e-04         -0.4571
 402       2.615e-03       5.204e-01      -4.842e-07           0.000           0.000           1.000       1.072e-04         -1.1166
Strip 32
 403       2.391e-01       5.493e-01       3.006e-09           0.000           0.000           1.000       9.442e-05         -0.0074
 404       2.339e-01       5.493e-01       5.410e-09          -0.000           0.000           1.000       2.778e-04         -0.0132
 405       2.221e-01       5.493e-01      -3.730e-09           0.000           0.000           1.000       4.450e-04         -0.0200
 406       2.044e-01       5.493e-01       2.181e-08          -0.000          -0.000           1.000       5.863e-04         -0.0276
 407       1.818e-01       5.493e-01       3.641e-08           0.000           0.000           1.000       6.936e-04         -0.0367
 408       1.555e-01       5.493e-01       3.446e-07           0.000           0.000           1.000       7.605e-04         -0.0478
 409       1.272e-01       5.493e-01       9.930e-07           0.000          -0.000           1.000       7.833e-04         -0.0625
 410       9.851e-02       5.493e-01      -1.336e-08          -0.000           0.000           1.000       7.605e-04         -0.0846
 411       7.104e-02       5.493e-01      -1.739e-06           0.000           0.000           1.000       6.936e-04         -0.1137
 412       4.642e-02       5.493e-01       2.241e-06          -0.000           0.000           1.000       5.863e-04         -0.1627
 413       2.607e-02       5.493e-01      -2.672e-07          -0.000           0.000           1.000       4.450e-04         -0.2458
 414       1.118e-02       5.493e-01      -8.133e-07           0.000           0.000           1.000       2.778e-04         -0.4261
 415       2.615e-03       5.493e-01      -4.842e-07           0.000           0.000           1.000       9.442e-05         -1.0453
Strip 33
 416       2.391e-01       5.745e-01       3.006e-09           0.000           0.000           1.000       8.101e-05         -0.0064
 417       2.339e-01       5.745e-01       5.410e-09          -0.000           0.000           1.000       2.383e-04         -0.0113
 418       2.221e-01       5.745e-01      -3.730e-09           0.000           0.000           1.000       3.818e-04         -0.0171
 419       2.044e-01       5.745e-01       2.181e-08          -0.000           0.000           1.000       5.030e-04         -0.0235
 420       1.818e-01       5.745e-01       3.641e-08           0.000           0.000           1.000       5.951e-04         -0.0312
 421       1.555e-01       5.745e-01       3.446e-07           0.000           0.000           1.000       6.525e-04         -0.0406
 422       1.272e-01       5.745e-01       9.930e-07           0.000           0.000           1.000       6.721e-04         -0.0532
 423       9.851e-02       5.745e-01      -1.336e-08          -0.000           0.000           1.000       6.525e-04         -0.0726
 424       7.104e-02       5.745e-01      -1.739e-06           0.000           0.000           1.000       5.951e-04         -0.0985
 425       4.642e-02       5.745e-01       2.241e-06          -0.000           0.000           1.000       5.030e-04         -0.1438
 426       2.607e-02       5.745e-01      -2.672e-07          -0.000           0.000           1.000       3.818e-04         -0.2218
 427       1.118e-02       5.745e-01      -8.133e-07           0.000           0.000           1.000       2.383e-04         -0.3903
 428       2.615e-03       5.745e-01      -4.842e-07           0.000           0.000           1.000       8.101e-05         -0.9639
Strip 34
 429       2.391e-01       5.957e-01       3.006e-09           0.000           0.000           1.000       6.705e-05         -0.0054
 430       2.339e-01       5.957e-01       5.410e-09          -0.000           0.000           1.000       1.972e-04         -0.0095
 431       2.221e-01       5.957e-01      -3.730e-09           0.000           0.000           1.000       3.160e-04         -0.0142
 432       2.044e-01       5.957e-01       2.181e-08          -0.000           0.000           1.000       4.164e-04         -0.0195
 433       1.818e-01       5.957e-01       3.641e-08           0.000           0.000           1.000       4.925e-04         -0.0257
 434       1.555e-01       5.957e-01       3.446e-07           0.000           0.000           1.000       5.401e-04         -0.0333
 435       1.272e-01       5.957e-01       9.930e-07           0.000           0.000           1.000       5.562e-04         -0.0437
 436       9.851e-02       5.957e-01      -1.336e-08          -0.000           0.000           1.000       5.401e-04         -0.0600
 437       7.104e-02       5.957e-01      -1.739e-06           0.000           0.000           1.000       4.925e-04         -0.0818
 438       4.642e-02       5.957e-01       2.241e-06          -0.000           0.000           1.000       4.164e-04         -0.1220
 439       2.607e-02       5.957e-01      -2.672e-07          -0.000           0.000           1.000       3.160e-04         -0.1935
 440       1.118e-02       5.957e-01      -8.133e-07           0.000           0.000           1.000       1.972e-04         -0.3490
 441       2.615e-03       5.957e-01      -4.842e-07           0.000           0.000           1.000       6.705e-05         -0.8713
Strip 35
 442       2.391e-01       6.129e-01       3.006e-09           0.000           0.000           1.000       5.263e-05         -0.0044
 443       2.339e-01       6.129e-01       5.410e-09          -0.000           0.000           1.000       1.548e-04         -0.0077
 444       2.221e-01       6.129e-01      -3.730e-09           0.000           0.000           1.000       2.480e-04         -0.0114
 445       2.044e-01       6.129e-01       2.181e-08          -0.000           0.000           1.000       3.268e-04         -0.0156
 446       1.818e-01       6.129e-01       3.641e-08           0.000           0.000           1.000       3.866e-04         -0.0204
 447       1.555e-01       6.129e-01       3.446e-07           0.000           0.000           1.000       4.239e-04         -0.0263
 448       1.272e-01       6.129e-01       9.930e-07           0.000           0.000           1.000       4.366e-04         -0.0343
 449       9.851e-02       6.129e-01      -1.336e-08          -0.000           0.000           1.000       4.239e-04         -0.0473
 450       7.104e-02       6.129e-01      -1.739e-06           0.000           0.000           1.000       3.866e-04         -0.0643
 451       4.642e-02       6.129e-01       2.241e-06          -0.000           0.000           1.000       3.268e-04         -0.0975
 452       2.607e-02       6.129e-01      -2.672e-07          -0.000           0.000           1.000       2.480e-04         -0.1601
 453       1.118e-02       6.129e-01      -8.133e-07           0.000           0.000           1.000       1.548e-04         -0.3005
 454       2.615e-03       6.129e-01      -4.842e-07           0.000           0.000           1.000       5.263e-05         -0.7656
Strip 36
 455       2.391e-01       6.258e-01       3.006e-09           0.000           0.000           1.000       3.785e-05         -0.0035
 456       2.339e-01       6.258e-01       5.410e-09          -0.000           0.000           1.000       1.114e-04         -0.0060
 457       2.221e-01       6.258e-01      -3.730e-09           0.000           0.000           1.000       1.784e-04         -0.0087
 458       2.044e-01       6.258e-01       2.181e-08          -0.000           0.000           1.000       2.351e-04         -0.0117
 459       1.818e-01       6.258e-01       3.641e-08           0.000           0.000           1.000       2.781e-04         -0.0153
 460       1.555e-01       6.258e-01       3.446e-07           0.000           0.000           1.000       3.049e-04         -0.0196
 461       1.272e-01       6.258e-01       9.930e-07           0.000           0.000           1.000       3.140e-04         -0.0254
 462       9.851e-02       6.258e-01      -1.336e-08          -0.000           0.000           1.000       3.049e-04         -0.0351
 463       7.104e-02       6.258e-01      -1.739e-06           0.000           0.000           1.000       2.781e-04         -0.0472
 464       4.642e-02       6.258e-01       2.241e-06          -0.000           0.000           1.000       2.351e-04         -0.0720
 465       2.607e-02       6.258e-01      -2.672e-07          -0.000          -0.000           1.000       1.784e-04         -0.1212
 466       1.118e-02       6.258e-01      -8.133e-07           0.000          -0.000           1.000       1.114e-04         -0.2423
 467       2.615e-03       6.258e-01      -4.842e-07           0.000           0.000           1.000       3.785e-05         -0.6439
Strip 37
 468       2.391e-01       6.345e-01       3.006e-09           0.000           0.000           1.000       2.281e-05         -0.0025
 469       2.339e-01       6.345e-01       5.410e-09          -0.000           0.000           1.000       6.712e-05         -0.0043
 470       2.221e-01       6.345e-01      -3.730e-09           0.000           0.000           1.000       1.075e-04         -0.0060
 471       2.044e-01       6.345e-01       2.181e-08          -0.000           0.000           1.000       1.417e-04         -0.0080
 472       1.818e-01       6.345e-01       3.641e-08           0.000           0.000           1.000       1.676e-04         -0.0104
 473       1.555e-01       6.345e-01       3.446e-07           0.000           0.000           1.000       1.838e-04         -0.0133
 474       1.272e-01       6.345e-01       9.930e-07           0.000           0.000           1.000       1.893e-04         -0.0172
 475       9.851e-02       6.345e-01      -1.336e-08          -0.000           0.000           1.000       1.838e-04         -0.0238
 476       7.104e-02       6.345e-01      -1.739e-06           0.000           0.000           1.000       1.676e-04         -0.0315
 477       4.642e-02       6.345e-01       2.241e-06          -0.000           0.000           1.000       1.417e-04         -0.0478
 478       2.607e-02       6.345e-01      -2.672e-07          -0.000           0.000           1.000       1.075e-04         -0.0801
 479       1.118e-02       6.345e-01      -8.133e-07           0.000           0.000           1.000       6.712e-05         -0.1702
 480       2.615e-03       6.345e-01      -4.842e-07           0.000           0.000           1.000       2.281e-05         -0.5008
Strip 38
 481       2.391e-01       6.389e-01       3.006e-09           0.000           0.000           1.000       7.622e-06         -0.0016
 482       2.339e-01       6.389e-01       5.410e-09          -0.000           0.000           1.000       2.242e-05         -0.0025
 483       2.221e-01       6.389e-01      -3.730e-09           0.000           0.000           1.000       3.592e-05         -0.0035
 484       2.044e-01       6.389e-01       2.181e-08          -0.000           0.000           1.000       4.733e-05         -0.0047
 485       1.818e-01       6.389e-01       3.641e-08           0.000           0.000           1.000       5.599e-05         -0.0060
 486       1.555e-01       6.389e-01       3.446e-07           0.000           0.000           1.000       6.140e-05         -0.0077
 487       1.272e-01       6.389e-01       9.930e-07           0.000           0.000           1.000       6.324e-05         -0.0099
 488       9.851e-02       6.389e-01      -1.336e-08          -0.000           0.000           1.000       6.140e-05         -0.0137
 489       7.104e-02       6.389e-01      -1.739e-06           0.000           0.000           1.000       5.599e-05         -0.0180
 490       4.642e-02       6.389e-01       2.241e-06          -0.000           0.000           1.000       4.733e-05         -0.0271
 491       2.607e-02       6.389e-01      -2.672e-07          -0.000           0.000           1.000       3.592e-05         -0.0449
 492       1.118e-02       6.389e-01      -8.133e-07           0.000           0.000           1.000       2.242e-05         -0.0938
 493       2.615e-03       6.389e-01      -4.842e-07           0.000           0.000           1.000       7.622e-06         -0.3233










