xflr5 v6.50

Plane Name
T1-44.0 m/s-VLM1
QInf  =   44.000000 m/s
Alpha =    2.000000
Beta  =    0.000°
Phi   =    0.000°
Ctrl  =    0.000
CL    =    0.143559
Cy    =    0.000000
Cd    =    0.008164     ICd   =    0.001211     PCd   =    0.006953
Cl   =    1.23e-18
Cm   =  -0.0342091
ICn   =    0.000000     PCn   =   -0.000000 
XCP   =    0.057124     YCP   =    0.000000     ZCP   =   -0.000000  
XNP   =    0.000000
Bending =    6.756493

Main Wing
  y-span        Chord      Ai         Cl        PCd          ICd        CmGeom    CmAirf@chord/4    XTrtop    XTrBot      XCP       BM
   -0.6389     0.2400    -0.796    0.021269    0.006894    0.000296   -0.004018    0.001359     0.6633    0.6723    0.1861    0.0000
   -0.6345     0.2400    -0.786    0.036596    0.006897    0.000502   -0.006956    0.002253     0.6601    0.6757    0.1884    0.0001
   -0.6258     0.2400    -0.770    0.052611    0.006901    0.000707   -0.010234    0.002979     0.6568    0.6793    0.1934    0.0008
   -0.6129     0.2400    -0.749    0.068099    0.006904    0.000890   -0.013662    0.003423     0.6536    0.6828    0.1997    0.0039
   -0.5957     0.2400    -0.723    0.082710    0.006907    0.001044   -0.017151    0.003587     0.6506    0.6860    0.2066    0.0131
   -0.5745     0.2400    -0.694    0.096231    0.006910    0.001166   -0.020600    0.003518     0.6478    0.6891    0.2134    0.0341
   -0.5493     0.2400    -0.661    0.108523    0.006913    0.001253   -0.023907    0.003284     0.6452    0.6918    0.2197    0.0750
   -0.5204     0.2400    -0.627    0.119512    0.006921    0.001308   -0.026983    0.002955     0.6429    0.6943    0.2253    0.1462
   -0.4880     0.2400    -0.592    0.129184    0.006932    0.001335   -0.029765    0.002592     0.6409    0.6965    0.2299    0.2600
   -0.4522     0.2400    -0.558    0.137573    0.006941    0.001340   -0.032219    0.002235     0.6392    0.6984    0.2338    0.4305
   -0.4133     0.2400    -0.526    0.144750    0.006949    0.001329   -0.034337    0.001912     0.6377    0.7001    0.2368    0.6727
   -0.3716     0.2400    -0.497    0.150807    0.006956    0.001307   -0.036130    0.001633     0.6364    0.7015    0.2392    1.0018
   -0.3273     0.2400    -0.471    0.155846    0.006962    0.001280   -0.037620    0.001402     0.6353    0.7026    0.2410    1.4327
   -0.2808     0.2400    -0.448    0.159964    0.006967    0.001252   -0.038836    0.001216     0.6345    0.7036    0.2424    1.9790
   -0.2324     0.2400    -0.430    0.163253    0.006970    0.001225   -0.039803    0.001071     0.6338    0.7043    0.2434    2.6526
   -0.1825     0.2400    -0.415    0.165789    0.006973    0.001202   -0.040546    0.000962     0.6333    0.7049    0.2442    3.4628
   -0.1312     0.2400    -0.404    0.167636    0.006975    0.001183   -0.041086    0.000884     0.6329    0.7053    0.2447    4.4156
   -0.0791     0.2400    -0.397    0.168842    0.006977    0.001170   -0.041437    0.000834     0.6326    0.7056    0.2451    5.5140
   -0.0264     0.2400    -0.394    0.169436    0.006978    0.001164   -0.041610    0.000810     0.6325    0.7057    0.2452    6.7565
    0.0264     0.2400    -0.394    0.169436    0.006978    0.001164   -0.041610    0.000810     0.6325    0.7057    0.2452    6.7565
    0.0791     0.2400    -0.397    0.168842    0.006977    0.001170   -0.041437    0.000834     0.6326    0.7056    0.2451    5.5140
    0.1312     0.2400    -0.404    0.167636    0.006975    0.001183   -0.041086    0.000884     0.6329    0.7053    0.2447    4.4156
    0.1825     0.2400    -0.415    0.165789    0.006973    0.001202   -0.040546    0.000962     0.6333    0.7049    0.2442    3.4628
    0.2324     0.2400    -0.430    0.163253    0.006970    0.001225   -0.039803    0.001071     0.6338    0.7043    0.2434    2.6526
    0.2808     0.2400    -0.448    0.159964    0.006967    0.001252   -0.038836    0.001216     0.6345    0.7036    0.2424    1.9790
    0.3273     0.2400    -0.471    0.155846    0.006962    0.001280   -0.037620    0.001402     0.6353    0.7026    0.2410    1.4327
    0.3716     0.2400    -0.497    0.150807    0.006956    0.001307   -0.036130    0.001633     0.6364    0.7015    0.2392    1.0018
    0.4133     0.2400    -0.526    0.144750    0.006949    0.001329   -0.034337    0.001912     0.6377    0.7001    0.2368    0.6727
    0.4522     0.2400    -0.558    0.137573    0.006941    0.001340   -0.032219    0.002235     0.6392    0.6984    0.2338    0.4305
    0.4880     0.2400    -0.592    0.129184    0.006932    0.001335   -0.029765    0.002592     0.6409    0.6965    0.2299    0.2600
    0.5204     0.2400    -0.627    0.119512    0.006921    0.001308   -0.026983    0.002955     0.6429    0.6943    0.2253    0.1462
    0.5493     0.2400    -0.661    0.108523    0.006913    0.001253   -0.023907    0.003284     0.6452    0.6918    0.2197    0.0750
    0.5745     0.2400    -0.694    0.096231    0.006910    0.001166   -0.020600    0.003518     0.6478    0.6891    0.2134    0.0341
    0.5957     0.2400    -0.723    0.082710    0.006907    0.001044   -0.017151    0.003587     0.6506    0.6860    0.2066    0.0131
    0.6129     0.2400    -0.749    0.068099    0.006904    0.000890   -0.013662    0.003423     0.6536    0.6828    0.1997    0.0039
    0.6258     0.2400    -0.770    0.052611    0.006901    0.000707   -0.010234    0.002979     0.6568    0.6793    0.1934    0.0008
    0.6345     0.2400    -0.786    0.036596    0.006897    0.000502   -0.006956    0.002253     0.6601    0.6757    0.1884    0.0001
    0.6389     0.2400    -0.796    0.021269    0.006894    0.000296   -0.004018    0.001359     0.6633    0.6723    0.1861    0.0000


Main Wing Cp Coefficients
 Panel     CtrlPt.x        CtrlPt.y        CtrlPt.z       Nx      Ny       Nz        Area       Cp
Main WingCp Coefficients
Strip 1
   0       2.391e-01      -6.389e-01       3.006e-09           0.000           0.000           1.000       7.622e-06          0.0016
   1       2.339e-01      -6.389e-01       5.410e-09          -0.000           0.000           1.000       2.242e-05          0.0025
   2       2.221e-01      -6.389e-01      -3.730e-09           0.000           0.000           1.000       3.592e-05          0.0035
   3       2.044e-01      -6.389e-01       2.181e-08          -0.000           0.000           1.000       4.733e-05          0.0046
   4       1.818e-01      -6.389e-01       3.641e-08           0.000           0.000           1.000       5.599e-05          0.0060
   5       1.555e-01      -6.389e-01       3.446e-07           0.000           0.000           1.000       6.140e-05          0.0078
   6       1.272e-01      -6.389e-01       9.930e-07           0.000           0.000           1.000       6.324e-05          0.0101
   7       9.851e-02      -6.389e-01      -1.336e-08          -0.000           0.000           1.000       6.140e-05          0.0129
   8       7.104e-02      -6.389e-01      -1.739e-06           0.000           0.000           1.000       5.599e-05          0.0187
   9       4.642e-02      -6.389e-01       2.241e-06          -0.000           0.000           1.000       4.733e-05          0.0270
  10       2.607e-02      -6.389e-01      -2.672e-07          -0.000           0.000           1.000       3.592e-05          0.0447
  11       1.118e-02      -6.389e-01      -8.133e-07           0.000           0.000           1.000       2.242e-05          0.0935
  12       2.615e-03      -6.389e-01      -4.842e-07           0.000           0.000           1.000       7.622e-06          0.3244
Strip 2
  13       2.391e-01      -6.345e-01       3.006e-09           0.000           0.000           1.000       2.281e-05          0.0026
  14       2.339e-01      -6.345e-01       5.410e-09          -0.000           0.000           1.000       6.712e-05          0.0042
  15       2.221e-01      -6.345e-01      -3.730e-09           0.000           0.000           1.000       1.075e-04          0.0060
  16       2.044e-01      -6.345e-01       2.181e-08          -0.000           0.000           1.000       1.417e-04          0.0080
  17       1.818e-01      -6.345e-01       3.641e-08           0.000           0.000           1.000       1.676e-04          0.0104
  18       1.555e-01      -6.345e-01       3.446e-07           0.000           0.000           1.000       1.838e-04          0.0135
  19       1.272e-01      -6.345e-01       9.930e-07           0.000           0.000           1.000       1.893e-04          0.0176
  20       9.851e-02      -6.345e-01      -1.336e-08          -0.000           0.000           1.000       1.838e-04          0.0225
  21       7.104e-02      -6.345e-01      -1.739e-06           0.000           0.000           1.000       1.676e-04          0.0327
  22       4.642e-02      -6.345e-01       2.241e-06          -0.000           0.000           1.000       1.417e-04          0.0475
  23       2.607e-02      -6.345e-01      -2.672e-07          -0.000           0.000           1.000       1.075e-04          0.0798
  24       1.118e-02      -6.345e-01      -8.133e-07           0.000           0.000           1.000       6.712e-05          0.1698
  25       2.615e-03      -6.345e-01      -4.842e-07           0.000           0.000           1.000       2.281e-05          0.5023
Strip 3
  26       2.391e-01      -6.258e-01       3.006e-09           0.000           0.000           1.000       3.785e-05          0.0035
  27       2.339e-01      -6.258e-01       5.410e-09          -0.000           0.000           1.000       1.114e-04          0.0060
  28       2.221e-01      -6.258e-01      -3.730e-09           0.000           0.000           1.000       1.784e-04          0.0087
  29       2.044e-01      -6.258e-01       2.181e-08          -0.000           0.000           1.000       2.351e-04          0.0117
  30       1.818e-01      -6.258e-01       3.641e-08           0.000           0.000           1.000       2.781e-04          0.0152
  31       1.555e-01      -6.258e-01       3.446e-07           0.000           0.000           1.000       3.049e-04          0.0198
  32       1.272e-01      -6.258e-01       9.930e-07           0.000           0.000           1.000       3.140e-04          0.0260
  33       9.851e-02      -6.258e-01      -1.336e-08          -0.000           0.000           1.000       3.049e-04          0.0336
  34       7.104e-02      -6.258e-01      -1.739e-06           0.000           0.000           1.000       2.781e-04          0.0487
  35       4.642e-02      -6.258e-01       2.241e-06          -0.000           0.000           1.000       2.351e-04          0.0717
  36       2.607e-02      -6.258e-01      -2.672e-07          -0.000           0.000           1.000       1.784e-04          0.1207
  37       1.118e-02      -6.258e-01      -8.133e-07           0.000           0.000           1.000       1.114e-04          0.2419
  38       2.615e-03      -6.258e-01      -4.842e-07           0.000           0.000           1.000       3.785e-05          0.6454
Strip 4
  39       2.391e-01      -6.129e-01       3.006e-09           0.000           0.000           1.000       5.263e-05          0.0044
  40       2.339e-01      -6.129e-01       5.410e-09          -0.000           0.000           1.000       1.548e-04          0.0077
  41       2.221e-01      -6.129e-01      -3.730e-09           0.000          -0.000           1.000       2.480e-04          0.0114
  42       2.044e-01      -6.129e-01       2.181e-08          -0.000           0.000           1.000       3.268e-04          0.0155
  43       1.818e-01      -6.129e-01       3.641e-08           0.000          -0.000           1.000       3.866e-04          0.0203
  44       1.555e-01      -6.129e-01       3.446e-07           0.000           0.000           1.000       4.239e-04          0.0265
  45       1.272e-01      -6.129e-01       9.930e-07           0.000           0.000           1.000       4.366e-04          0.0349
  46       9.851e-02      -6.129e-01      -1.336e-08          -0.000           0.000           1.000       4.239e-04          0.0456
  47       7.104e-02      -6.129e-01      -1.739e-06           0.000           0.000           1.000       3.866e-04          0.0659
  48       4.642e-02      -6.129e-01       2.241e-06          -0.000           0.000           1.000       3.268e-04          0.0972
  49       2.607e-02      -6.129e-01      -2.672e-07          -0.000           0.000           1.000       2.480e-04          0.1596
  50       1.118e-02      -6.129e-01      -8.133e-07           0.000           0.000           1.000       1.548e-04          0.3001
  51       2.615e-03      -6.129e-01      -4.842e-07           0.000           0.000           1.000       5.263e-05          0.7671
Strip 5
  52       2.391e-01      -5.957e-01       3.006e-09           0.000           0.000           1.000       6.705e-05          0.0054
  53       2.339e-01      -5.957e-01       5.410e-09          -0.000           0.000           1.000       1.972e-04          0.0095
  54       2.221e-01      -5.957e-01      -3.730e-09           0.000           0.000           1.000       3.160e-04          0.0142
  55       2.044e-01      -5.957e-01       2.181e-08          -0.000           0.000           1.000       4.164e-04          0.0194
  56       1.818e-01      -5.957e-01       3.641e-08           0.000          -0.000           1.000       4.925e-04          0.0256
  57       1.555e-01      -5.957e-01       3.446e-07           0.000           0.000           1.000       5.401e-04          0.0336
  58       1.272e-01      -5.957e-01       9.930e-07           0.000          -0.000           1.000       5.562e-04          0.0443
  59       9.851e-02      -5.957e-01      -1.336e-08          -0.000           0.000           1.000       5.401e-04          0.0583
  60       7.104e-02      -5.957e-01      -1.739e-06           0.000           0.000           1.000       4.925e-04          0.0834
  61       4.642e-02      -5.957e-01       2.241e-06          -0.000           0.000           1.000       4.164e-04          0.1217
  62       2.607e-02      -5.957e-01      -2.672e-07          -0.000           0.000           1.000       3.160e-04          0.1930
  63       1.118e-02      -5.957e-01      -8.133e-07           0.000           0.000           1.000       1.972e-04          0.3485
  64       2.615e-03      -5.957e-01      -4.842e-07           0.000           0.000           1.000       6.705e-05          0.8727
Strip 6
  65       2.391e-01      -5.745e-01       3.006e-09           0.000           0.000           1.000       8.101e-05          0.0064
  66       2.339e-01      -5.745e-01       5.410e-09          -0.000           0.000           1.000       2.383e-04          0.0113
  67       2.221e-01      -5.745e-01      -3.730e-09           0.000           0.000           1.000       3.818e-04          0.0171
  68       2.044e-01      -5.745e-01       2.181e-08          -0.000           0.000           1.000       5.030e-04          0.0235
  69       1.818e-01      -5.745e-01       3.641e-08           0.000           0.000           1.000       5.951e-04          0.0311
  70       1.555e-01      -5.745e-01       3.446e-07           0.000           0.000           1.000       6.525e-04          0.0408
  71       1.272e-01      -5.745e-01       9.930e-07           0.000           0.000           1.000       6.721e-04          0.0538
  72       9.851e-02      -5.745e-01      -1.336e-08          -0.000           0.000           1.000       6.525e-04          0.0709
  73       7.104e-02      -5.745e-01      -1.739e-06           0.000           0.000           1.000       5.951e-04          0.1002
  74       4.642e-02      -5.745e-01       2.241e-06          -0.000           0.000           1.000       5.030e-04          0.1435
  75       2.607e-02      -5.745e-01      -2.672e-07          -0.000           0.000           1.000       3.818e-04          0.2213
  76       1.118e-02      -5.745e-01      -8.133e-07           0.000           0.000           1.000       2.383e-04          0.3898
  77       2.615e-03      -5.745e-01      -4.842e-07           0.000           0.000           1.000       8.101e-05          0.9653
Strip 7
  78       2.391e-01      -5.493e-01       3.006e-09           0.000           0.000           1.000       9.442e-05          0.0075
  79       2.339e-01      -5.493e-01       5.410e-09          -0.000           0.000           1.000       2.778e-04          0.0132
  80       2.221e-01      -5.493e-01      -3.730e-09           0.000          -0.000           1.000       4.450e-04          0.0200
  81       2.044e-01      -5.493e-01       2.181e-08          -0.000           0.000           1.000       5.863e-04          0.0276
  82       1.818e-01      -5.493e-01       3.641e-08           0.000           0.000           1.000       6.936e-04          0.0366
  83       1.555e-01      -5.493e-01       3.446e-07           0.000           0.000           1.000       7.605e-04          0.0480
  84       1.272e-01      -5.493e-01       9.930e-07           0.000          -0.000           1.000       7.833e-04          0.0631
  85       9.851e-02      -5.493e-01      -1.336e-08          -0.000           0.000           1.000       7.605e-04          0.0829
  86       7.104e-02      -5.493e-01      -1.739e-06           0.000           0.000           1.000       6.936e-04          0.1153
  87       4.642e-02      -5.493e-01       2.241e-06          -0.000           0.000           1.000       5.863e-04          0.1624
  88       2.607e-02      -5.493e-01      -2.672e-07          -0.000           0.000           1.000       4.450e-04          0.2453
  89       1.118e-02      -5.493e-01      -8.133e-07           0.000           0.000           1.000       2.778e-04          0.4256
  90       2.615e-03      -5.493e-01      -4.842e-07           0.000           0.000           1.000       9.442e-05          1.0467
Strip 8
  91       2.391e-01      -5.204e-01       3.006e-09           0.000           0.000           1.000       1.072e-04          0.0085
  92       2.339e-01      -5.204e-01       5.410e-09          -0.000           0.000           1.000       3.153e-04          0.0151
  93       2.221e-01      -5.204e-01      -3.730e-09           0.000           0.000           1.000       5.051e-04          0.0228
  94       2.044e-01      -5.204e-01       2.181e-08          -0.000          -0.000           1.000       6.656e-04          0.0316
  95       1.818e-01      -5.204e-01       3.641e-08           0.000           0.000           1.000       7.873e-04          0.0419
  96       1.555e-01      -5.204e-01       3.446e-07           0.000           0.000           1.000       8.633e-04          0.0549
  97       1.272e-01      -5.204e-01       9.930e-07           0.000           0.000           1.000       8.892e-04          0.0719
  98       9.851e-02      -5.204e-01      -1.336e-08          -0.000          -0.000           1.000       8.633e-04          0.0937
  99       7.104e-02      -5.204e-01      -1.739e-06           0.000           0.000           1.000       7.873e-04          0.1286
 100       4.642e-02      -5.204e-01       2.241e-06          -0.000          -0.000           1.000       6.656e-04          0.1785
 101       2.607e-02      -5.204e-01      -2.672e-07          -0.000           0.000           1.000       5.051e-04          0.2659
 102       1.118e-02      -5.204e-01      -8.133e-07           0.000           0.000           1.000       3.153e-04          0.4566
 103       2.615e-03      -5.204e-01      -4.842e-07           0.000           0.000           1.000       1.072e-04          1.1180
Strip 9
 104       2.391e-01      -4.880e-01       3.006e-09           0.000           0.000           1.000       1.192e-04          0.0096
 105       2.339e-01      -4.880e-01       5.410e-09          -0.000           0.000           1.000       3.507e-04          0.0169
 106       2.221e-01      -4.880e-01      -3.730e-09           0.000           0.000           1.000       5.618e-04          0.0256
 107       2.044e-01      -4.880e-01       2.181e-08          -0.000           0.000           1.000       7.403e-04          0.0354
 108       1.818e-01      -4.880e-01       3.641e-08           0.000          -0.000           1.000       8.757e-04          0.0469
 109       1.555e-01      -4.880e-01       3.446e-07           0.000          -0.000           1.000       9.602e-04          0.0612
 110       1.272e-01      -4.880e-01       9.930e-07           0.000           0.000           1.000       9.890e-04          0.0797
 111       9.851e-02      -4.880e-01      -1.336e-08          -0.000          -0.000           1.000       9.602e-04          0.1033
 112       7.104e-02      -4.880e-01      -1.739e-06           0.000           0.000           1.000       8.757e-04          0.1400
 113       4.642e-02      -4.880e-01       2.241e-06          -0.000          -0.000           1.000       7.403e-04          0.1922
 114       2.607e-02      -4.880e-01      -2.672e-07          -0.000          -0.000           1.000       5.618e-04          0.2835
 115       1.118e-02      -4.880e-01      -8.133e-07           0.000          -0.000           1.000       3.507e-04          0.4835
 116       2.615e-03      -4.880e-01      -4.842e-07           0.000           0.000           1.000       1.192e-04          1.1803
Strip 10
 117       2.391e-01      -4.522e-01       3.006e-09           0.000           0.000           1.000       1.304e-04          0.0105
 118       2.339e-01      -4.522e-01       5.410e-09          -0.000           0.000           1.000       3.837e-04          0.0186
 119       2.221e-01      -4.522e-01      -3.730e-09           0.000          -0.000           1.000       6.147e-04          0.0281
 120       2.044e-01      -4.522e-01       2.181e-08          -0.000          -0.000           1.000       8.099e-04          0.0388
 121       1.818e-01      -4.522e-01       3.641e-08           0.000           0.000           1.000       9.581e-04          0.0514
 122       1.555e-01      -4.522e-01       3.446e-07           0.000           0.000           1.000       1.051e-03          0.0669
 123       1.272e-01      -4.522e-01       9.930e-07           0.000           0.000           1.000       1.082e-03          0.0866
 124       9.851e-02      -4.522e-01      -1.336e-08          -0.000           0.000           1.000       1.051e-03          0.1114
 125       7.104e-02      -4.522e-01      -1.739e-06           0.000           0.000           1.000       9.581e-04          0.1497
 126       4.642e-02      -4.522e-01       2.241e-06          -0.000           0.000           1.000       8.099e-04          0.2039
 127       2.607e-02      -4.522e-01      -2.672e-07          -0.000           0.000           1.000       6.147e-04          0.2985
 128       1.118e-02      -4.522e-01      -8.133e-07           0.000          -0.000           1.000       3.837e-04          0.5068
 129       2.615e-03      -4.522e-01      -4.842e-07           0.000           0.000           1.000       1.304e-04          1.2343
Strip 11
 130       2.391e-01      -4.133e-01       3.006e-09           0.000           0.000           1.000       1.407e-04          0.0114
 131       2.339e-01      -4.133e-01       5.410e-09          -0.000           0.000           1.000       4.141e-04          0.0201
 132       2.221e-01      -4.133e-01      -3.730e-09           0.000          -0.000           1.000       6.633e-04          0.0304
 133       2.044e-01      -4.133e-01       2.181e-08          -0.000           0.000           1.000       8.740e-04          0.0419
 134       1.818e-01      -4.133e-01       3.641e-08           0.000           0.000           1.000       1.034e-03          0.0553
 135       1.555e-01      -4.133e-01       3.446e-07           0.000           0.000           1.000       1.134e-03          0.0718
 136       1.272e-01      -4.133e-01       9.930e-07           0.000           0.000           1.000       1.168e-03          0.0925
 137       9.851e-02      -4.133e-01      -1.336e-08          -0.000           0.000           1.000       1.134e-03          0.1184
 138       7.104e-02      -4.133e-01      -1.739e-06           0.000           0.000           1.000       1.034e-03          0.1578
 139       4.642e-02      -4.133e-01       2.241e-06          -0.000           0.000           1.000       8.740e-04          0.2137
 140       2.607e-02      -4.133e-01      -2.672e-07          -0.000           0.000           1.000       6.633e-04          0.3113
 141       1.118e-02      -4.133e-01      -8.133e-07           0.000           0.000           1.000       4.141e-04          0.5266
 142       2.615e-03      -4.133e-01      -4.842e-07           0.000           0.000           1.000       1.407e-04          1.2808
Strip 12
 143       2.391e-01      -3.716e-01       3.006e-09           0.000           0.000           1.000       1.501e-04          0.0121
 144       2.339e-01      -3.716e-01       5.410e-09          -0.000           0.000           1.000       4.416e-04          0.0214
 145       2.221e-01      -3.716e-01      -3.730e-09           0.000           0.000           1.000       7.074e-04          0.0323
 146       2.044e-01      -3.716e-01       2.181e-08          -0.000          -0.000           1.000       9.322e-04          0.0446
 147       1.818e-01      -3.716e-01       3.641e-08           0.000           0.000           1.000       1.103e-03          0.0587
 148       1.555e-01      -3.716e-01       3.446e-07           0.000           0.000           1.000       1.209e-03          0.0759
 149       1.272e-01      -3.716e-01       9.930e-07           0.000          -0.000           1.000       1.245e-03          0.0974
 150       9.851e-02      -3.716e-01      -1.336e-08          -0.000           0.000           1.000       1.209e-03          0.1242
 151       7.104e-02      -3.716e-01      -1.739e-06           0.000           0.000           1.000       1.103e-03          0.1646
 152       4.642e-02      -3.716e-01       2.241e-06          -0.000          -0.000           1.000       9.322e-04          0.2219
 153       2.607e-02      -3.716e-01      -2.672e-07          -0.000          -0.000           1.000       7.074e-04          0.3221
 154       1.118e-02      -3.716e-01      -8.133e-07           0.000           0.000           1.000       4.416e-04          0.5435
 155       2.615e-03      -3.716e-01      -4.842e-07           0.000           0.000           1.000       1.501e-04          1.3204
Strip 13
 156       2.391e-01      -3.273e-01       3.006e-09           0.000           0.000           1.000       1.585e-04          0.0127
 157       2.339e-01      -3.273e-01       5.410e-09          -0.000           0.000           1.000       4.661e-04          0.0225
 158       2.221e-01      -3.273e-01      -3.730e-09           0.000           0.000           1.000       7.467e-04          0.0340
 159       2.044e-01      -3.273e-01       2.181e-08          -0.000           0.000           1.000       9.839e-04          0.0468
 160       1.818e-01      -3.273e-01       3.641e-08           0.000           0.000           1.000       1.164e-03          0.0615
 161       1.555e-01      -3.273e-01       3.446e-07           0.000           0.000           1.000       1.276e-03          0.0793
 162       1.272e-01      -3.273e-01       9.930e-07           0.000           0.000           1.000       1.315e-03          0.1015
 163       9.851e-02      -3.273e-01      -1.336e-08          -0.000           0.000           1.000       1.276e-03          0.1289
 164       7.104e-02      -3.273e-01      -1.739e-06           0.000           0.000           1.000       1.164e-03          0.1702
 165       4.642e-02      -3.273e-01       2.241e-06          -0.000           0.000           1.000       9.839e-04          0.2287
 166       2.607e-02      -3.273e-01      -2.672e-07          -0.000           0.000           1.000       7.467e-04          0.3311
 167       1.118e-02      -3.273e-01      -8.133e-07           0.000           0.000           1.000       4.661e-04          0.5577
 168       2.615e-03      -3.273e-01      -4.842e-07           0.000           0.000           1.000       1.585e-04          1.3537
Strip 14
 169       2.391e-01      -2.808e-01       3.006e-09           0.000           0.000           1.000       1.657e-04          0.0132
 170       2.339e-01      -2.808e-01       5.410e-09          -0.000           0.000           1.000       4.875e-04          0.0234
 171       2.221e-01      -2.808e-01      -3.730e-09           0.000          -0.000           1.000       7.809e-04          0.0353
 172       2.044e-01      -2.808e-01       2.181e-08          -0.000           0.000           1.000       1.029e-03          0.0486
 173       1.818e-01      -2.808e-01       3.641e-08           0.000           0.000           1.000       1.217e-03          0.0638
 174       1.555e-01      -2.808e-01       3.446e-07           0.000           0.000           1.000       1.335e-03          0.0821
 175       1.272e-01      -2.808e-01       9.930e-07           0.000          -0.000           1.000       1.375e-03          0.1048
 176       9.851e-02      -2.808e-01      -1.336e-08          -0.000           0.000           1.000       1.335e-03          0.1328
 177       7.104e-02      -2.808e-01      -1.739e-06           0.000           0.000           1.000       1.217e-03          0.1748
 178       4.642e-02      -2.808e-01       2.241e-06          -0.000           0.000           1.000       1.029e-03          0.2343
 179       2.607e-02      -2.808e-01      -2.672e-07          -0.000           0.000           1.000       7.809e-04          0.3385
 180       1.118e-02      -2.808e-01      -8.133e-07           0.000           0.000           1.000       4.875e-04          0.5693
 181       2.615e-03      -2.808e-01      -4.842e-07           0.000           0.000           1.000       1.657e-04          1.3812
Strip 15
 182       2.391e-01      -2.324e-01       3.006e-09           0.000           0.000           1.000       1.718e-04          0.0137
 183       2.339e-01      -2.324e-01       5.410e-09          -0.000           0.000           1.000       5.055e-04          0.0241
 184       2.221e-01      -2.324e-01      -3.730e-09           0.000           0.000           1.000       8.098e-04          0.0364
 185       2.044e-01      -2.324e-01       2.181e-08          -0.000          -0.000           1.000       1.067e-03          0.0500
 186       1.818e-01      -2.324e-01       3.641e-08           0.000           0.000           1.000       1.262e-03          0.0656
 187       1.555e-01      -2.324e-01       3.446e-07           0.000           0.000           1.000       1.384e-03          0.0843
 188       1.272e-01      -2.324e-01       9.930e-07           0.000           0.000           1.000       1.426e-03          0.1074
 189       9.851e-02      -2.324e-01      -1.336e-08          -0.000          -0.000           1.000       1.384e-03          0.1359
 190       7.104e-02      -2.324e-01      -1.739e-06           0.000           0.000           1.000       1.262e-03          0.1784
 191       4.642e-02      -2.324e-01       2.241e-06          -0.000           0.000           1.000       1.067e-03          0.2388
 192       2.607e-02      -2.324e-01      -2.672e-07          -0.000           0.000           1.000       8.098e-04          0.3444
 193       1.118e-02      -2.324e-01      -8.133e-07           0.000          -0.000           1.000       5.055e-04          0.5787
 194       2.615e-03      -2.324e-01      -4.842e-07           0.000           0.000           1.000       1.718e-04          1.4033
Strip 16
 195       2.391e-01      -1.825e-01       3.006e-09           0.000           0.000           1.000       1.768e-04          0.0140
 196       2.339e-01      -1.825e-01       5.410e-09          -0.000           0.000           1.000       5.201e-04          0.0247
 197       2.221e-01      -1.825e-01      -3.730e-09           0.000          -0.000           1.000       8.331e-04          0.0373
 198       2.044e-01      -1.825e-01       2.181e-08          -0.000           0.000           1.000       1.098e-03          0.0512
 199       1.818e-01      -1.825e-01       3.641e-08           0.000           0.000           1.000       1.299e-03          0.0671
 200       1.555e-01      -1.825e-01       3.446e-07           0.000           0.000           1.000       1.424e-03          0.0860
 201       1.272e-01      -1.825e-01       9.930e-07           0.000           0.000           1.000       1.467e-03          0.1094
 202       9.851e-02      -1.825e-01      -1.336e-08          -0.000           0.000           1.000       1.424e-03          0.1382
 203       7.104e-02      -1.825e-01      -1.739e-06           0.000           0.000           1.000       1.299e-03          0.1812
 204       4.642e-02      -1.825e-01       2.241e-06          -0.000          -0.000           1.000       1.098e-03          0.2422
 205       2.607e-02      -1.825e-01      -2.672e-07          -0.000           0.000           1.000       8.331e-04          0.3490
 206       1.118e-02      -1.825e-01      -8.133e-07           0.000           0.000           1.000       5.201e-04          0.5860
 207       2.615e-03      -1.825e-01      -4.842e-07           0.000           0.000           1.000       1.768e-04          1.4205
Strip 17
 208       2.391e-01      -1.312e-01       3.006e-09           0.000           0.000           1.000       1.805e-04          0.0142
 209       2.339e-01      -1.312e-01       5.410e-09          -0.000           0.000           1.000       5.311e-04          0.0251
 210       2.221e-01      -1.312e-01      -3.730e-09           0.000           0.000           1.000       8.508e-04          0.0379
 211       2.044e-01      -1.312e-01       2.181e-08          -0.000           0.000           1.000       1.121e-03          0.0520
 212       1.818e-01      -1.312e-01       3.641e-08           0.000          -0.000           1.000       1.326e-03          0.0681
 213       1.555e-01      -1.312e-01       3.446e-07           0.000           0.000           1.000       1.454e-03          0.0873
 214       1.272e-01      -1.312e-01       9.930e-07           0.000           0.000           1.000       1.498e-03          0.1109
 215       9.851e-02      -1.312e-01      -1.336e-08          -0.000           0.000           1.000       1.454e-03          0.1399
 216       7.104e-02      -1.312e-01      -1.739e-06           0.000           0.000           1.000       1.326e-03          0.1832
 217       4.642e-02      -1.312e-01       2.241e-06          -0.000           0.000           1.000       1.121e-03          0.2447
 218       2.607e-02      -1.312e-01      -2.672e-07          -0.000          -0.000           1.000       8.508e-04          0.3523
 219       1.118e-02      -1.312e-01      -8.133e-07           0.000          -0.000           1.000       5.311e-04          0.5913
 220       2.615e-03      -1.312e-01      -4.842e-07           0.000           0.000           1.000       1.805e-04          1.4331
Strip 18
 221       2.391e-01      -7.910e-02       3.006e-09           0.000           0.000           1.000       1.830e-04          0.0144
 222       2.339e-01      -7.910e-02       5.410e-09          -0.000           0.000           1.000       5.385e-04          0.0254
 223       2.221e-01      -7.910e-02      -3.730e-09           0.000           0.000           1.000       8.626e-04          0.0383
 224       2.044e-01      -7.910e-02       2.181e-08          -0.000          -0.000           1.000       1.137e-03          0.0525
 225       1.818e-01      -7.910e-02       3.641e-08           0.000           0.000           1.000       1.345e-03          0.0687
 226       1.555e-01      -7.910e-02       3.446e-07           0.000           0.000           1.000       1.474e-03          0.0881
 227       1.272e-01      -7.910e-02       9.930e-07           0.000          -0.000           1.000       1.518e-03          0.1118
 228       9.851e-02      -7.910e-02      -1.336e-08          -0.000           0.000           1.000       1.474e-03          0.1411
 229       7.104e-02      -7.910e-02      -1.739e-06           0.000           0.000           1.000       1.345e-03          0.1846
 230       4.642e-02      -7.910e-02       2.241e-06          -0.000          -0.000           1.000       1.137e-03          0.2463
 231       2.607e-02      -7.910e-02      -2.672e-07          -0.000          -0.000           1.000       8.626e-04          0.3545
 232       1.118e-02      -7.910e-02      -8.133e-07           0.000           0.000           1.000       5.385e-04          0.5948
 233       2.615e-03      -7.910e-02      -4.842e-07           0.000           0.000           1.000       1.830e-04          1.4414
Strip 19
 234       2.391e-01      -2.643e-02       3.006e-09           0.000           0.000           1.000       1.843e-04          0.0144
 235       2.339e-01      -2.643e-02       5.410e-09          -0.000           0.000           1.000       5.422e-04          0.0255
 236       2.221e-01      -2.643e-02      -3.730e-09           0.000           0.000           1.000       8.685e-04          0.0384
 237       2.044e-01      -2.643e-02       2.181e-08          -0.000           0.000           1.000       1.144e-03          0.0528
 238       1.818e-01      -2.643e-02       3.641e-08           0.000           0.000           1.000       1.354e-03          0.0691
 239       1.555e-01      -2.643e-02       3.446e-07           0.000           0.000           1.000       1.484e-03          0.0885
 240       1.272e-01      -2.643e-02       9.930e-07           0.000           0.000           1.000       1.529e-03          0.1123
 241       9.851e-02      -2.643e-02      -1.336e-08          -0.000          -0.000           1.000       1.484e-03          0.1416
 242       7.104e-02      -2.643e-02      -1.739e-06           0.000           0.000           1.000       1.354e-03          0.1852
 243       4.642e-02      -2.643e-02       2.241e-06          -0.000           0.000           1.000       1.144e-03          0.2472
 244       2.607e-02      -2.643e-02      -2.672e-07          -0.000           0.000           1.000       8.685e-04          0.3556
 245       1.118e-02      -2.643e-02      -8.133e-07           0.000           0.000           1.000       5.422e-04          0.5966
 246       2.615e-03      -2.643e-02      -4.842e-07           0.000           0.000           1.000       1.843e-04          1.4455
Strip 20
 247       2.391e-01       2.643e-02       3.006e-09           0.000           0.000           1.000       1.843e-04          0.0144
 248       2.339e-01       2.643e-02       5.410e-09          -0.000           0.000           1.000       5.422e-04          0.0255
 249       2.221e-01       2.643e-02      -3.730e-09           0.000           0.000           1.000       8.685e-04          0.0384
 250       2.044e-01       2.643e-02       2.181e-08          -0.000          -0.000           1.000       1.144e-03          0.0528
 251       1.818e-01       2.643e-02       3.641e-08           0.000           0.000           1.000       1.354e-03          0.0691
 252       1.555e-01       2.643e-02       3.446e-07           0.000           0.000           1.000       1.484e-03          0.0885
 253       1.272e-01       2.643e-02       9.930e-07           0.000           0.000           1.000       1.529e-03          0.1123
 254       9.851e-02       2.643e-02      -1.336e-08          -0.000           0.000           1.000       1.484e-03          0.1416
 255       7.104e-02       2.643e-02      -1.739e-06           0.000           0.000           1.000       1.354e-03          0.1852
 256       4.642e-02       2.643e-02       2.241e-06          -0.000           0.000           1.000       1.144e-03          0.2472
 257       2.607e-02       2.643e-02      -2.672e-07          -0.000           0.000           1.000       8.685e-04          0.3556
 258       1.118e-02       2.643e-02      -8.133e-07           0.000           0.000           1.000       5.422e-04          0.5966
 259       2.615e-03       2.643e-02      -4.842e-07           0.000           0.000           1.000       1.843e-04          1.4455
Strip 21
 260       2.391e-01       7.910e-02       3.006e-09           0.000           0.000           1.000       1.830e-04          0.0144
 261       2.339e-01       7.910e-02       5.410e-09          -0.000          -0.000           1.000       5.385e-04          0.0254
 262       2.221e-01       7.910e-02      -3.730e-09           0.000           0.000           1.000       8.626e-04          0.0383
 263       2.044e-01       7.910e-02       2.181e-08          -0.000           0.000           1.000       1.137e-03          0.0525
 264       1.818e-01       7.910e-02       3.641e-08           0.000          -0.000           1.000       1.345e-03          0.0687
 265       1.555e-01       7.910e-02       3.446e-07           0.000           0.000           1.000       1.474e-03          0.0881
 266       1.272e-01       7.910e-02       9.930e-07           0.000           0.000           1.000       1.518e-03          0.1118
 267       9.851e-02       7.910e-02      -1.336e-08          -0.000          -0.000           1.000       1.474e-03          0.1411
 268       7.104e-02       7.910e-02      -1.739e-06           0.000           0.000           1.000       1.345e-03          0.1846
 269       4.642e-02       7.910e-02       2.241e-06          -0.000           0.000           1.000       1.137e-03          0.2463
 270       2.607e-02       7.910e-02      -2.672e-07          -0.000           0.000           1.000       8.626e-04          0.3545
 271       1.118e-02       7.910e-02      -8.133e-07           0.000          -0.000           1.000       5.385e-04          0.5948
 272       2.615e-03       7.910e-02      -4.842e-07           0.000           0.000           1.000       1.830e-04          1.4414
Strip 22
 273       2.391e-01       1.312e-01       3.006e-09           0.000           0.000           1.000       1.805e-04          0.0142
 274       2.339e-01       1.312e-01       5.410e-09          -0.000           0.000           1.000       5.311e-04          0.0251
 275       2.221e-01       1.312e-01      -3.730e-09           0.000          -0.000           1.000       8.508e-04          0.0379
 276       2.044e-01       1.312e-01       2.181e-08          -0.000           0.000           1.000       1.121e-03          0.0520
 277       1.818e-01       1.312e-01       3.641e-08           0.000          -0.000           1.000       1.326e-03          0.0681
 278       1.555e-01       1.312e-01       3.446e-07           0.000           0.000           1.000       1.454e-03          0.0873
 279       1.272e-01       1.312e-01       9.930e-07           0.000          -0.000           1.000       1.498e-03          0.1109
 280       9.851e-02       1.312e-01      -1.336e-08          -0.000           0.000           1.000       1.454e-03          0.1399
 281       7.104e-02       1.312e-01      -1.739e-06           0.000          -0.000           1.000       1.326e-03          0.1832
 282       4.642e-02       1.312e-01       2.241e-06          -0.000           0.000           1.000       1.121e-03          0.2447
 283       2.607e-02       1.312e-01      -2.672e-07          -0.000           0.000           1.000       8.508e-04          0.3523
 284       1.118e-02       1.312e-01      -8.133e-07           0.000           0.000           1.000       5.311e-04          0.5913
 285       2.615e-03       1.312e-01      -4.842e-07           0.000           0.000           1.000       1.805e-04          1.4331
Strip 23
 286       2.391e-01       1.825e-01       3.006e-09           0.000           0.000           1.000       1.768e-04          0.0140
 287       2.339e-01       1.825e-01       5.410e-09          -0.000           0.000           1.000       5.201e-04          0.0247
 288       2.221e-01       1.825e-01      -3.730e-09           0.000           0.000           1.000       8.331e-04          0.0373
 289       2.044e-01       1.825e-01       2.181e-08          -0.000          -0.000           1.000       1.098e-03          0.0512
 290       1.818e-01       1.825e-01       3.641e-08           0.000           0.000           1.000       1.299e-03          0.0671
 291       1.555e-01       1.825e-01       3.446e-07           0.000           0.000           1.000       1.424e-03          0.0860
 292       1.272e-01       1.825e-01       9.930e-07           0.000           0.000           1.000       1.467e-03          0.1094
 293       9.851e-02       1.825e-01      -1.336e-08          -0.000          -0.000           1.000       1.424e-03          0.1382
 294       7.104e-02       1.825e-01      -1.739e-06           0.000           0.000           1.000       1.299e-03          0.1812
 295       4.642e-02       1.825e-01       2.241e-06          -0.000           0.000           1.000       1.098e-03          0.2422
 296       2.607e-02       1.825e-01      -2.672e-07          -0.000           0.000           1.000       8.331e-04          0.3490
 297       1.118e-02       1.825e-01      -8.133e-07           0.000          -0.000           1.000       5.201e-04          0.5860
 298       2.615e-03       1.825e-01      -4.842e-07           0.000           0.000           1.000       1.768e-04          1.4205
Strip 24
 299       2.391e-01       2.324e-01       3.006e-09           0.000           0.000           1.000       1.718e-04          0.0137
 300       2.339e-01       2.324e-01       5.410e-09          -0.000           0.000           1.000       5.055e-04          0.0241
 301       2.221e-01       2.324e-01      -3.730e-09           0.000           0.000           1.000       8.098e-04          0.0364
 302       2.044e-01       2.324e-01       2.181e-08          -0.000           0.000           1.000       1.067e-03          0.0500
 303       1.818e-01       2.324e-01       3.641e-08           0.000          -0.000           1.000       1.262e-03          0.0656
 304       1.555e-01       2.324e-01       3.446e-07           0.000           0.000           1.000       1.384e-03          0.0843
 305       1.272e-01       2.324e-01       9.930e-07           0.000           0.000           1.000       1.426e-03          0.1074
 306       9.851e-02       2.324e-01      -1.336e-08          -0.000          -0.000           1.000       1.384e-03          0.1359
 307       7.104e-02       2.324e-01      -1.739e-06           0.000           0.000           1.000       1.262e-03          0.1784
 308       4.642e-02       2.324e-01       2.241e-06          -0.000           0.000           1.000       1.067e-03          0.2388
 309       2.607e-02       2.324e-01      -2.672e-07          -0.000           0.000           1.000       8.098e-04          0.3444
 310       1.118e-02       2.324e-01      -8.133e-07           0.000           0.000           1.000       5.055e-04          0.5787
 311       2.615e-03       2.324e-01      -4.842e-07           0.000           0.000           1.000       1.718e-04          1.4033
Strip 25
 312       2.391e-01       2.808e-01       3.006e-09           0.000           0.000           1.000       1.657e-04          0.0132
 313       2.339e-01       2.808e-01       5.410e-09          -0.000           0.000           1.000       4.875e-04          0.0234
 314       2.221e-01       2.808e-01      -3.730e-09           0.000          -0.000           1.000       7.809e-04          0.0353
 315       2.044e-01       2.808e-01       2.181e-08          -0.000           0.000           1.000       1.029e-03          0.0486
 316       1.818e-01       2.808e-01       3.641e-08           0.000           0.000           1.000       1.217e-03          0.0638
 317       1.555e-01       2.808e-01       3.446e-07           0.000           0.000           1.000       1.335e-03          0.0821
 318       1.272e-01       2.808e-01       9.930e-07           0.000          -0.000           1.000       1.375e-03          0.1048
 319       9.851e-02       2.808e-01      -1.336e-08          -0.000           0.000           1.000       1.335e-03          0.1328
 320       7.104e-02       2.808e-01      -1.739e-06           0.000           0.000           1.000       1.217e-03          0.1748
 321       4.642e-02       2.808e-01       2.241e-06          -0.000           0.000           1.000       1.029e-03          0.2343
 322       2.607e-02       2.808e-01      -2.672e-07          -0.000           0.000           1.000       7.809e-04          0.3385
 323       1.118e-02       2.808e-01      -8.133e-07           0.000           0.000           1.000       4.875e-04          0.5693
 324       2.615e-03       2.808e-01      -4.842e-07           0.000           0.000           1.000       1.657e-04          1.3812
Strip 26
 325       2.391e-01       3.273e-01       3.006e-09           0.000           0.000           1.000       1.585e-04          0.0127
 326       2.339e-01       3.273e-01       5.410e-09          -0.000           0.000           1.000       4.661e-04          0.0225
 327       2.221e-01       3.273e-01      -3.730e-09           0.000           0.000           1.000       7.467e-04          0.0340
 328       2.044e-01       3.273e-01       2.181e-08          -0.000           0.000           1.000       9.839e-04          0.0468
 329       1.818e-01       3.273e-01       3.641e-08           0.000           0.000           1.000       1.164e-03          0.0615
 330       1.555e-01       3.273e-01       3.446e-07           0.000           0.000           1.000       1.276e-03          0.0793
 331       1.272e-01       3.273e-01       9.930e-07           0.000           0.000           1.000       1.315e-03          0.1015
 332       9.851e-02       3.273e-01      -1.336e-08          -0.000           0.000           1.000       1.276e-03          0.1289
 333       7.104e-02       3.273e-01      -1.739e-06           0.000           0.000           1.000       1.164e-03          0.1702
 334       4.642e-02       3.273e-01       2.241e-06          -0.000          -0.000           1.000       9.839e-04          0.2287
 335       2.607e-02       3.273e-01      -2.672e-07          -0.000          -0.000           1.000       7.467e-04          0.3311
 336       1.118e-02       3.273e-01      -8.133e-07           0.000           0.000           1.000       4.661e-04          0.5577
 337       2.615e-03       3.273e-01      -4.842e-07           0.000           0.000           1.000       1.585e-04          1.3537
Strip 27
 338       2.391e-01       3.716e-01       3.006e-09           0.000           0.000           1.000       1.501e-04          0.0121
 339       2.339e-01       3.716e-01       5.410e-09          -0.000           0.000           1.000       4.416e-04          0.0214
 340       2.221e-01       3.716e-01      -3.730e-09           0.000           0.000           1.000       7.074e-04          0.0323
 341       2.044e-01       3.716e-01       2.181e-08          -0.000          -0.000           1.000       9.322e-04          0.0446
 342       1.818e-01       3.716e-01       3.641e-08           0.000           0.000           1.000       1.103e-03          0.0587
 343       1.555e-01       3.716e-01       3.446e-07           0.000           0.000           1.000       1.209e-03          0.0759
 344       1.272e-01       3.716e-01       9.930e-07           0.000           0.000           1.000       1.245e-03          0.0974
 345       9.851e-02       3.716e-01      -1.336e-08          -0.000           0.000           1.000       1.209e-03          0.1242
 346       7.104e-02       3.716e-01      -1.739e-06           0.000           0.000           1.000       1.103e-03          0.1646
 347       4.642e-02       3.716e-01       2.241e-06          -0.000           0.000           1.000       9.322e-04          0.2219
 348       2.607e-02       3.716e-01      -2.672e-07          -0.000           0.000           1.000       7.074e-04          0.3221
 349       1.118e-02       3.716e-01      -8.133e-07           0.000          -0.000           1.000       4.416e-04          0.5435
 350       2.615e-03       3.716e-01      -4.842e-07           0.000           0.000           1.000       1.501e-04          1.3204
Strip 28
 351       2.391e-01       4.133e-01       3.006e-09           0.000           0.000           1.000       1.407e-04          0.0114
 352       2.339e-01       4.133e-01       5.410e-09          -0.000           0.000           1.000       4.141e-04          0.0201
 353       2.221e-01       4.133e-01      -3.730e-09           0.000          -0.000           1.000       6.633e-04          0.0304
 354       2.044e-01       4.133e-01       2.181e-08          -0.000           0.000           1.000       8.740e-04          0.0419
 355       1.818e-01       4.133e-01       3.641e-08           0.000           0.000           1.000       1.034e-03          0.0553
 356       1.555e-01       4.133e-01       3.446e-07           0.000           0.000           1.000       1.134e-03          0.0718
 357       1.272e-01       4.133e-01       9.930e-07           0.000           0.000           1.000       1.168e-03          0.0925
 358       9.851e-02       4.133e-01      -1.336e-08          -0.000          -0.000           1.000       1.134e-03          0.1184
 359       7.104e-02       4.133e-01      -1.739e-06           0.000           0.000           1.000       1.034e-03          0.1578
 360       4.642e-02       4.133e-01       2.241e-06          -0.000           0.000           1.000       8.740e-04          0.2137
 361       2.607e-02       4.133e-01      -2.672e-07          -0.000           0.000           1.000       6.633e-04          0.3113
 362       1.118e-02       4.133e-01      -8.133e-07           0.000           0.000           1.000       4.141e-04          0.5266
 363       2.615e-03       4.133e-01      -4.842e-07           0.000           0.000           1.000       1.407e-04          1.2808
Strip 29
 364       2.391e-01       4.522e-01       3.006e-09           0.000           0.000           1.000       1.304e-04          0.0105
 365       2.339e-01       4.522e-01       5.410e-09          -0.000           0.000           1.000       3.837e-04          0.0186
 366       2.221e-01       4.522e-01      -3.730e-09           0.000          -0.000           1.000       6.147e-04          0.0281
 367       2.044e-01       4.522e-01       2.181e-08          -0.000           0.000           1.000       8.099e-04          0.0388
 368       1.818e-01       4.522e-01       3.641e-08           0.000          -0.000           1.000       9.581e-04          0.0514
 369       1.555e-01       4.522e-01       3.446e-07           0.000           0.000           1.000       1.051e-03          0.0669
 370       1.272e-01       4.522e-01       9.930e-07           0.000          -0.000           1.000       1.082e-03          0.0866
 371       9.851e-02       4.522e-01      -1.336e-08          -0.000           0.000           1.000       1.051e-03          0.1114
 372       7.104e-02       4.522e-01      -1.739e-06           0.000           0.000           1.000       9.581e-04          0.1497
 373       4.642e-02       4.522e-01       2.241e-06          -0.000           0.000           1.000       8.099e-04          0.2039
 374       2.607e-02       4.522e-01      -2.672e-07          -0.000           0.000           1.000       6.147e-04          0.2985
 375       1.118e-02       4.522e-01      -8.133e-07           0.000           0.000           1.000       3.837e-04          0.5068
 376       2.615e-03       4.522e-01      -4.842e-07           0.000           0.000           1.000       1.304e-04          1.2343
Strip 30
 377       2.391e-01       4.880e-01       3.006e-09           0.000           0.000           1.000       1.192e-04          0.0096
 378       2.339e-01       4.880e-01       5.410e-09          -0.000           0.000           1.000       3.507e-04          0.0169
 379       2.221e-01       4.880e-01      -3.730e-09           0.000           0.000           1.000       5.618e-04          0.0256
 380       2.044e-01       4.880e-01       2.181e-08          -0.000          -0.000           1.000       7.403e-04          0.0354
 381       1.818e-01       4.880e-01       3.641e-08           0.000           0.000           1.000       8.757e-04          0.0469
 382       1.555e-01       4.880e-01       3.446e-07           0.000           0.000           1.000       9.602e-04          0.0612
 383       1.272e-01       4.880e-01       9.930e-07           0.000           0.000           1.000       9.890e-04          0.0797
 384       9.851e-02       4.880e-01      -1.336e-08          -0.000          -0.000           1.000       9.602e-04          0.1033
 385       7.104e-02       4.880e-01      -1.739e-06           0.000           0.000           1.000       8.757e-04          0.1400
 386       4.642e-02       4.880e-01       2.241e-06          -0.000           0.000           1.000       7.403e-04          0.1922
 387       2.607e-02       4.880e-01      -2.672e-07          -0.000           0.000           1.000       5.618e-04          0.2835
 388       1.118e-02       4.880e-01      -8.133e-07           0.000          -0.000           1.000       3.507e-04          0.4835
 389       2.615e-03       4.880e-01      -4.842e-07           0.000           0.000           1.000       1.192e-04          1.1803
Strip 31
 390       2.391e-01       5.204e-01       3.006e-09           0.000           0.000           1.000       1.072e-04          0.0085
 391       2.339e-01       5.204e-01       5.410e-09          -0.000           0.000           1.000       3.153e-04          0.0151
 392       2.221e-01       5.204e-01      -3.730e-09           0.000           0.000           1.000       5.051e-04          0.0228
 393       2.044e-01       5.204e-01       2.181e-08          -0.000           0.000           1.000       6.656e-04          0.0316
 394       1.818e-01       5.204e-01       3.641e-08           0.000          -0.000           1.000       7.873e-04          0.0419
 395       1.555e-01       5.204e-01       3.446e-07           0.000           0.000           1.000       8.633e-04          0.0549
 396       1.272e-01       5.204e-01       9.930e-07           0.000          -0.000           1.000       8.892e-04          0.0719
 397       9.851e-02       5.204e-01      -1.336e-08          -0.000           0.000           1.000       8.633e-04          0.0937
 398       7.104e-02       5.204e-01      -1.739e-06           0.000           0.000           1.000       7.873e-04          0.1286
 399       4.642e-02       5.204e-01       2.241e-06          -0.000          -0.000           1.000       6.656e-04          0.1785
 400       2.607e-02       5.204e-01      -2.672e-07          -0.000          -0.000           1.000       5.051e-04          0.2659
 401       1.118e-02       5.204e-01      -8.133e-07           0.000           0.000           1.000       3.153e-04          0.4566
 402       2.615e-03       5.204e-01      -4.842e-07           0.000           0.000           1.000       1.072e-04          1.1180
Strip 32
 403       2.391e-01       5.493e-01       3.006e-09           0.000           0.000           1.000       9.442e-05          0.0075
 404       2.339e-01       5.493e-01       5.410e-09          -0.000           0.000           1.000       2.778e-04          0.0132
 405       2.221e-01       5.493e-01      -3.730e-09           0.000           0.000           1.000       4.450e-04          0.0200
 406       2.044e-01       5.493e-01       2.181e-08          -0.000          -0.000           1.000       5.863e-04          0.0276
 407       1.818e-01       5.493e-01       3.641e-08           0.000           0.000           1.000       6.936e-04          0.0366
 408       1.555e-01       5.493e-01       3.446e-07           0.000           0.000           1.000       7.605e-04          0.0480
 409       1.272e-01       5.493e-01       9.930e-07           0.000          -0.000           1.000       7.833e-04          0.0631
 410       9.851e-02       5.493e-01      -1.336e-08          -0.000           0.000           1.000       7.605e-04          0.0829
 411       7.104e-02       5.493e-01      -1.739e-06           0.000           0.000           1.000       6.936e-04          0.1153
 412       4.642e-02       5.493e-01       2.241e-06          -0.000           0.000           1.000       5.863e-04          0.1624
 413       2.607e-02       5.493e-01      -2.672e-07          -0.000           0.000           1.000       4.450e-04          0.2453
 414       1.118e-02       5.493e-01      -8.133e-07           0.000           0.000           1.000       2.778e-04          0.4256
 415       2.615e-03       5.493e-01      -4.842e-07           0.000           0.000           1.000       9.442e-05          1.0467
Strip 33
 416       2.391e-01       5.745e-01       3.006e-09           0.000           0.000           1.000       8.101e-05          0.0064
 417       2.339e-01       5.745e-01       5.410e-09          -0.000           0.000           1.000       2.383e-04          0.0113
 418       2.221e-01       5.745e-01      -3.730e-09           0.000           0.000           1.000       3.818e-04          0.0171
 419       2.044e-01       5.745e-01       2.181e-08          -0.000           0.000           1.000       5.030e-04          0.0235
 420       1.818e-01       5.745e-01       3.641e-08           0.000           0.000           1.000       5.951e-04          0.0311
 421       1.555e-01       5.745e-01       3.446e-07           0.000           0.000           1.000       6.525e-04          0.0408
 422       1.272e-01       5.745e-01       9.930e-07           0.000           0.000           1.000       6.721e-04          0.0538
 423       9.851e-02       5.745e-01      -1.336e-08          -0.000           0.000           1.000       6.525e-04          0.0709
 424       7.104e-02       5.745e-01      -1.739e-06           0.000           0.000           1.000       5.951e-04          0.1002
 425       4.642e-02       5.745e-01       2.241e-06          -0.000           0.000           1.000       5.030e-04          0.1435
 426       2.607e-02       5.745e-01      -2.672e-07          -0.000           0.000           1.000       3.818e-04          0.2213
 427       1.118e-02       5.745e-01      -8.133e-07           0.000           0.000           1.000       2.383e-04          0.3898
 428       2.615e-03       5.745e-01      -4.842e-07           0.000           0.000           1.000       8.101e-05          0.9653
Strip 34
 429       2.391e-01       5.957e-01       3.006e-09           0.000           0.000           1.000       6.705e-05          0.0054
 430       2.339e-01       5.957e-01       5.410e-09          -0.000           0.000           1.000       1.972e-04          0.0095
 431       2.221e-01       5.957e-01      -3.730e-09           0.000           0.000           1.000       3.160e-04          0.0142
 432       2.044e-01       5.957e-01       2.181e-08          -0.000           0.000           1.000       4.164e-04          0.0194
 433       1.818e-01       5.957e-01       3.641e-08           0.000           0.000           1.000       4.925e-04          0.0256
 434       1.555e-01       5.957e-01       3.446e-07           0.000           0.000           1.000       5.401e-04          0.0336
 435       1.272e-01       5.957e-01       9.930e-07           0.000           0.000           1.000       5.562e-04          0.0443
 436       9.851e-02       5.957e-01      -1.336e-08          -0.000           0.000           1.000       5.401e-04          0.0583
 437       7.104e-02       5.957e-01      -1.739e-06           0.000           0.000           1.000       4.925e-04          0.0834
 438       4.642e-02       5.957e-01       2.241e-06          -0.000           0.000           1.000       4.164e-04          0.1217
 439       2.607e-02       5.957e-01      -2.672e-07          -0.000           0.000           1.000       3.160e-04          0.1930
 440       1.118e-02       5.957e-01      -8.133e-07           0.000           0.000           1.000       1.972e-04          0.3485
 441       2.615e-03       5.957e-01      -4.842e-07           0.000           0.000           1.000       6.705e-05          0.8727
Strip 35
 442       2.391e-01       6.129e-01       3.006e-09           0.000           0.000           1.000       5.263e-05          0.0044
 443       2.339e-01       6.129e-01       5.410e-09          -0.000           0.000           1.000       1.548e-04          0.0077
 444       2.221e-01       6.129e-01      -3.730e-09           0.000           0.000           1.000       2.480e-04          0.0114
 445       2.044e-01       6.129e-01       2.181e-08          -0.000           0.000           1.000       3.268e-04          0.0155
 446       1.818e-01       6.129e-01       3.641e-08           0.000           0.000           1.000       3.866e-04          0.0203
 447       1.555e-01       6.129e-01       3.446e-07           0.000           0.000           1.000       4.239e-04          0.0265
 448       1.272e-01       6.129e-01       9.930e-07           0.000           0.000           1.000       4.366e-04          0.0349
 449       9.851e-02       6.129e-01      -1.336e-08          -0.000           0.000           1.000       4.239e-04          0.0456
 450       7.104e-02       6.129e-01      -1.739e-06           0.000           0.000           1.000       3.866e-04          0.0659
 451       4.642e-02       6.129e-01       2.241e-06          -0.000           0.000           1.000       3.268e-04          0.0972
 452       2.607e-02       6.129e-01      -2.672e-07          -0.000           0.000           1.000       2.480e-04          0.1596
 453       1.118e-02       6.129e-01      -8.133e-07           0.000           0.000           1.000       1.548e-04          0.3001
 454       2.615e-03       6.129e-01      -4.842e-07           0.000           0.000           1.000       5.263e-05          0.7671
Strip 36
 455       2.391e-01       6.258e-01       3.006e-09           0.000           0.000           1.000       3.785e-05          0.0035
 456       2.339e-01       6.258e-01       5.410e-09          -0.000           0.000           1.000       1.114e-04          0.0060
 457       2.221e-01       6.258e-01      -3.730e-09           0.000           0.000           1.000       1.784e-04          0.0087
 458       2.044e-01       6.258e-01       2.181e-08          -0.000           0.000           1.000       2.351e-04          0.0117
 459       1.818e-01       6.258e-01       3.641e-08           0.000           0.000           1.000       2.781e-04          0.0152
 460       1.555e-01       6.258e-01       3.446e-07           0.000           0.000           1.000       3.049e-04          0.0198
 461       1.272e-01       6.258e-01       9.930e-07           0.000           0.000           1.000       3.140e-04          0.0260
 462       9.851e-02       6.258e-01      -1.336e-08          -0.000           0.000           1.000       3.049e-04          0.0336
 463       7.104e-02       6.258e-01      -1.739e-06           0.000           0.000           1.000       2.781e-04          0.0487
 464       4.642e-02       6.258e-01       2.241e-06          -0.000           0.000           1.000       2.351e-04          0.0717
 465       2.607e-02       6.258e-01      -2.672e-07          -0.000          -0.000           1.000       1.784e-04          0.1207
 466       1.118e-02       6.258e-01      -8.133e-07           0.000          -0.000           1.000       1.114e-04          0.2419
 467       2.615e-03       6.258e-01      -4.842e-07           0.000           0.000           1.000       3.785e-05          0.6454
Strip 37
 468       2.391e-01       6.345e-01       3.006e-09           0.000           0.000           1.000       2.281e-05          0.0026
 469       2.339e-01       6.345e-01       5.410e-09          -0.000           0.000           1.000       6.712e-05          0.0042
 470       2.221e-01       6.345e-01      -3.730e-09           0.000           0.000           1.000       1.075e-04          0.0060
 471       2.044e-01       6.345e-01       2.181e-08          -0.000           0.000           1.000       1.417e-04          0.0080
 472       1.818e-01       6.345e-01       3.641e-08           0.000           0.000           1.000       1.676e-04          0.0104
 473       1.555e-01       6.345e-01       3.446e-07           0.000           0.000           1.000       1.838e-04          0.0135
 474       1.272e-01       6.345e-01       9.930e-07           0.000           0.000           1.000       1.893e-04          0.0176
 475       9.851e-02       6.345e-01      -1.336e-08          -0.000           0.000           1.000       1.838e-04          0.0225
 476       7.104e-02       6.345e-01      -1.739e-06           0.000           0.000           1.000       1.676e-04          0.0327
 477       4.642e-02       6.345e-01       2.241e-06          -0.000           0.000           1.000       1.417e-04          0.0475
 478       2.607e-02       6.345e-01      -2.672e-07          -0.000           0.000           1.000       1.075e-04          0.0798
 479       1.118e-02       6.345e-01      -8.133e-07           0.000           0.000           1.000       6.712e-05          0.1698
 480       2.615e-03       6.345e-01      -4.842e-07           0.000           0.000           1.000       2.281e-05          0.5023
Strip 38
 481       2.391e-01       6.389e-01       3.006e-09           0.000           0.000           1.000       7.622e-06          0.0016
 482       2.339e-01       6.389e-01       5.410e-09          -0.000           0.000           1.000       2.242e-05          0.0025
 483       2.221e-01       6.389e-01      -3.730e-09           0.000           0.000           1.000       3.592e-05          0.0035
 484       2.044e-01       6.389e-01       2.181e-08          -0.000           0.000           1.000       4.733e-05          0.0046
 485       1.818e-01       6.389e-01       3.641e-08           0.000           0.000           1.000       5.599e-05          0.0060
 486       1.555e-01       6.389e-01       3.446e-07           0.000           0.000           1.000       6.140e-05          0.0078
 487       1.272e-01       6.389e-01       9.930e-07           0.000           0.000           1.000       6.324e-05          0.0101
 488       9.851e-02       6.389e-01      -1.336e-08          -0.000           0.000           1.000       6.140e-05          0.0129
 489       7.104e-02       6.389e-01      -1.739e-06           0.000           0.000           1.000       5.599e-05          0.0187
 490       4.642e-02       6.389e-01       2.241e-06          -0.000           0.000           1.000       4.733e-05          0.0270
 491       2.607e-02       6.389e-01      -2.672e-07          -0.000           0.000           1.000       3.592e-05          0.0447
 492       1.118e-02       6.389e-01      -8.133e-07           0.000           0.000           1.000       2.242e-05          0.0935
 493       2.615e-03       6.389e-01      -4.842e-07           0.000           0.000           1.000       7.622e-06          0.3244










