xflr5 v6.50

Plane Name
T1-44.0 m/s-VLM1
QInf  =   44.000000 m/s
Alpha =   -0.500000
Beta  =    0.000°
Phi   =    0.000°
Ctrl  =    0.000
CL    =   -0.035902
Cy    =    0.000000
Cd    =    0.006988     ICd   =    0.000076     PCd   =    0.006912
Cl   = -2.38568e-19
Cm   =  0.00855361
ICn   =    0.000000     PCn   =    0.000000 
XCP   =    0.057082     YCP   =    0.000000     ZCP   =   -0.000000  
XNP   =    0.000000
Bending =   -1.690174

Main Wing
  y-span        Chord      Ai         Cl        PCd          ICd        CmGeom    CmAirf@chord/4    XTrtop    XTrBot      XCP       BM
   -0.6389     0.2400     0.199   -0.005320    0.006893    0.000018    0.001004   -0.000341     0.6688    0.6664    0.1859    0.0000
   -0.6345     0.2400     0.197   -0.009155    0.006896    0.000031    0.001739   -0.000565     0.6697    0.6655    0.1883   -0.0000
   -0.6258     0.2400     0.193   -0.013161    0.006898    0.000044    0.002558   -0.000747     0.6705    0.6647    0.1932   -0.0002
   -0.6129     0.2400     0.187   -0.017035    0.006901    0.000056    0.003415   -0.000859     0.6713    0.6638    0.1996   -0.0010
   -0.5957     0.2400     0.181   -0.020690    0.006903    0.000065    0.004287   -0.000900     0.6721    0.6631    0.2065   -0.0033
   -0.5745     0.2400     0.173   -0.024072    0.006905    0.000073    0.005150   -0.000883     0.6728    0.6623    0.2133   -0.0085
   -0.5493     0.2400     0.165   -0.027147    0.006907    0.000078    0.005977   -0.000825     0.6734    0.6617    0.2196   -0.0188
   -0.5204     0.2400     0.157   -0.029896    0.006909    0.000082    0.006746   -0.000743     0.6740    0.6611    0.2251   -0.0366
   -0.4880     0.2400     0.148   -0.032316    0.006910    0.000083    0.007442   -0.000652     0.6745    0.6606    0.2298   -0.0650
   -0.4522     0.2400     0.140   -0.034415    0.006912    0.000084    0.008056   -0.000563     0.6750    0.6601    0.2336   -0.1077
   -0.4133     0.2400     0.131   -0.036210    0.006913    0.000083    0.008585   -0.000482     0.6753    0.6598    0.2367   -0.1683
   -0.3716     0.2400     0.124   -0.037725    0.006914    0.000082    0.009034   -0.000413     0.6757    0.6594    0.2391   -0.2506
   -0.3273     0.2400     0.118   -0.038986    0.006914    0.000080    0.009407   -0.000355     0.6759    0.6592    0.2409   -0.3584
   -0.2808     0.2400     0.112   -0.040016    0.006915    0.000078    0.009711   -0.000308     0.6761    0.6589    0.2423   -0.4951
   -0.2324     0.2400     0.107   -0.040839    0.006916    0.000077    0.009953   -0.000272     0.6763    0.6588    0.2433   -0.6636
   -0.1825     0.2400     0.104   -0.041474    0.006916    0.000075    0.010139   -0.000245     0.6764    0.6586    0.2441   -0.8662
   -0.1312     0.2400     0.101   -0.041936    0.006916    0.000074    0.010274   -0.000225     0.6765    0.6585    0.2446   -1.1046
   -0.0791     0.2400     0.099   -0.042237    0.006916    0.000073    0.010362   -0.000213     0.6766    0.6585    0.2450   -1.3793
   -0.0264     0.2400     0.098   -0.042386    0.006917    0.000073    0.010405   -0.000207     0.6766    0.6584    0.2451   -1.6902
    0.0264     0.2400     0.098   -0.042386    0.006917    0.000073    0.010405   -0.000207     0.6766    0.6584    0.2451   -1.6902
    0.0791     0.2400     0.099   -0.042237    0.006916    0.000073    0.010362   -0.000213     0.6766    0.6585    0.2450   -1.3793
    0.1312     0.2400     0.101   -0.041936    0.006916    0.000074    0.010274   -0.000225     0.6765    0.6585    0.2446   -1.1046
    0.1825     0.2400     0.104   -0.041474    0.006916    0.000075    0.010139   -0.000245     0.6764    0.6586    0.2441   -0.8662
    0.2324     0.2400     0.107   -0.040839    0.006916    0.000077    0.009953   -0.000272     0.6763    0.6588    0.2433   -0.6636
    0.2808     0.2400     0.112   -0.040016    0.006915    0.000078    0.009711   -0.000308     0.6761    0.6589    0.2423   -0.4951
    0.3273     0.2400     0.118   -0.038986    0.006914    0.000080    0.009407   -0.000355     0.6759    0.6592    0.2409   -0.3584
    0.3716     0.2400     0.124   -0.037725    0.006914    0.000082    0.009034   -0.000413     0.6757    0.6594    0.2391   -0.2506
    0.4133     0.2400     0.131   -0.036210    0.006913    0.000083    0.008585   -0.000482     0.6753    0.6598    0.2367   -0.1683
    0.4522     0.2400     0.140   -0.034415    0.006912    0.000084    0.008056   -0.000563     0.6750    0.6601    0.2336   -0.1077
    0.4880     0.2400     0.148   -0.032316    0.006910    0.000083    0.007442   -0.000652     0.6745    0.6606    0.2298   -0.0650
    0.5204     0.2400     0.157   -0.029896    0.006909    0.000082    0.006746   -0.000743     0.6740    0.6611    0.2251   -0.0366
    0.5493     0.2400     0.165   -0.027147    0.006907    0.000078    0.005977   -0.000825     0.6734    0.6617    0.2196   -0.0188
    0.5745     0.2400     0.173   -0.024072    0.006905    0.000073    0.005150   -0.000883     0.6728    0.6623    0.2133   -0.0085
    0.5957     0.2400     0.181   -0.020690    0.006903    0.000065    0.004287   -0.000900     0.6721    0.6631    0.2065   -0.0033
    0.6129     0.2400     0.187   -0.017035    0.006901    0.000056    0.003415   -0.000859     0.6713    0.6638    0.1996   -0.0010
    0.6258     0.2400     0.193   -0.013161    0.006898    0.000044    0.002558   -0.000747     0.6705    0.6647    0.1932   -0.0002
    0.6345     0.2400     0.197   -0.009155    0.006896    0.000031    0.001739   -0.000565     0.6697    0.6655    0.1883   -0.0000
    0.6389     0.2400     0.199   -0.005320    0.006893    0.000018    0.001004   -0.000341     0.6688    0.6664    0.1859    0.0000


Main Wing Cp Coefficients
 Panel     CtrlPt.x        CtrlPt.y        CtrlPt.z       Nx      Ny       Nz        Area       Cp
Main WingCp Coefficients
Strip 1
   0       2.391e-01      -6.389e-01       3.006e-09           0.000           0.000           1.000       7.622e-06         -0.0004
   1       2.339e-01      -6.389e-01       5.410e-09          -0.000           0.000           1.000       2.242e-05         -0.0006
   2       2.221e-01      -6.389e-01      -3.730e-09           0.000           0.000           1.000       3.592e-05         -0.0009
   3       2.044e-01      -6.389e-01       2.181e-08          -0.000           0.000           1.000       4.733e-05         -0.0012
   4       1.818e-01      -6.389e-01       3.641e-08           0.000           0.000           1.000       5.599e-05         -0.0015
   5       1.555e-01      -6.389e-01       3.446e-07           0.000           0.000           1.000       6.140e-05         -0.0019
   6       1.272e-01      -6.389e-01       9.930e-07           0.000           0.000           1.000       6.324e-05         -0.0024
   7       9.851e-02      -6.389e-01      -1.336e-08          -0.000           0.000           1.000       6.140e-05         -0.0037
   8       7.104e-02      -6.389e-01      -1.739e-06           0.000           0.000           1.000       5.599e-05         -0.0042
   9       4.642e-02      -6.389e-01       2.241e-06          -0.000           0.000           1.000       4.733e-05         -0.0068
  10       2.607e-02      -6.389e-01      -2.672e-07          -0.000           0.000           1.000       3.592e-05         -0.0113
  11       1.118e-02      -6.389e-01      -8.133e-07           0.000           0.000           1.000       2.242e-05         -0.0236
  12       2.615e-03      -6.389e-01      -4.842e-07           0.000           0.000           1.000       7.622e-06         -0.0805
Strip 2
  13       2.391e-01      -6.345e-01       3.006e-09           0.000           0.000           1.000       2.281e-05         -0.0006
  14       2.339e-01      -6.345e-01       5.410e-09          -0.000           0.000           1.000       6.712e-05         -0.0011
  15       2.221e-01      -6.345e-01      -3.730e-09           0.000           0.000           1.000       1.075e-04         -0.0015
  16       2.044e-01      -6.345e-01       2.181e-08          -0.000           0.000           1.000       1.417e-04         -0.0020
  17       1.818e-01      -6.345e-01       3.641e-08           0.000           0.000           1.000       1.676e-04         -0.0026
  18       1.555e-01      -6.345e-01       3.446e-07           0.000           0.000           1.000       1.838e-04         -0.0033
  19       1.272e-01      -6.345e-01       9.930e-07           0.000           0.000           1.000       1.893e-04         -0.0041
  20       9.851e-02      -6.345e-01      -1.336e-08          -0.000           0.000           1.000       1.838e-04         -0.0064
  21       7.104e-02      -6.345e-01      -1.739e-06           0.000           0.000           1.000       1.676e-04         -0.0074
  22       4.642e-02      -6.345e-01       2.241e-06          -0.000           0.000           1.000       1.417e-04         -0.0120
  23       2.607e-02      -6.345e-01      -2.672e-07          -0.000           0.000           1.000       1.075e-04         -0.0202
  24       1.118e-02      -6.345e-01      -8.133e-07           0.000           0.000           1.000       6.712e-05         -0.0427
  25       2.615e-03      -6.345e-01      -4.842e-07           0.000           0.000           1.000       2.281e-05         -0.1248
Strip 3
  26       2.391e-01      -6.258e-01       3.006e-09           0.000           0.000           1.000       3.785e-05         -0.0008
  27       2.339e-01      -6.258e-01       5.410e-09          -0.000           0.000           1.000       1.114e-04         -0.0015
  28       2.221e-01      -6.258e-01      -3.730e-09           0.000           0.000           1.000       1.784e-04         -0.0022
  29       2.044e-01      -6.258e-01       2.181e-08          -0.000           0.000           1.000       2.351e-04         -0.0030
  30       1.818e-01      -6.258e-01       3.641e-08           0.000           0.000           1.000       2.781e-04         -0.0039
  31       1.555e-01      -6.258e-01       3.446e-07           0.000           0.000           1.000       3.049e-04         -0.0048
  32       1.272e-01      -6.258e-01       9.930e-07           0.000           0.000           1.000       3.140e-04         -0.0062
  33       9.851e-02      -6.258e-01      -1.336e-08          -0.000           0.000           1.000       3.049e-04         -0.0094
  34       7.104e-02      -6.258e-01      -1.739e-06           0.000           0.000           1.000       2.781e-04         -0.0112
  35       4.642e-02      -6.258e-01       2.241e-06          -0.000           0.000           1.000       2.351e-04         -0.0181
  36       2.607e-02      -6.258e-01      -2.672e-07          -0.000           0.000           1.000       1.784e-04         -0.0305
  37       1.118e-02      -6.258e-01      -8.133e-07           0.000           0.000           1.000       1.114e-04         -0.0608
  38       2.615e-03      -6.258e-01      -4.842e-07           0.000           0.000           1.000       3.785e-05         -0.1605
Strip 4
  39       2.391e-01      -6.129e-01       3.006e-09           0.000           0.000           1.000       5.263e-05         -0.0011
  40       2.339e-01      -6.129e-01       5.410e-09          -0.000           0.000           1.000       1.548e-04         -0.0019
  41       2.221e-01      -6.129e-01      -3.730e-09           0.000          -0.000           1.000       2.480e-04         -0.0029
  42       2.044e-01      -6.129e-01       2.181e-08          -0.000           0.000           1.000       3.268e-04         -0.0039
  43       1.818e-01      -6.129e-01       3.641e-08           0.000          -0.000           1.000       3.866e-04         -0.0051
  44       1.555e-01      -6.129e-01       3.446e-07           0.000           0.000           1.000       4.239e-04         -0.0065
  45       1.272e-01      -6.129e-01       9.930e-07           0.000           0.000           1.000       4.366e-04         -0.0084
  46       9.851e-02      -6.129e-01      -1.336e-08          -0.000           0.000           1.000       4.239e-04         -0.0125
  47       7.104e-02      -6.129e-01      -1.739e-06           0.000           0.000           1.000       3.866e-04         -0.0155
  48       4.642e-02      -6.129e-01       2.241e-06          -0.000           0.000           1.000       3.268e-04         -0.0245
  49       2.607e-02      -6.129e-01      -2.672e-07          -0.000           0.000           1.000       2.480e-04         -0.0402
  50       1.118e-02      -6.129e-01      -8.133e-07           0.000           0.000           1.000       1.548e-04         -0.0754
  51       2.615e-03      -6.129e-01      -4.842e-07           0.000           0.000           1.000       5.263e-05         -0.1910
Strip 5
  52       2.391e-01      -5.957e-01       3.006e-09           0.000           0.000           1.000       6.705e-05         -0.0013
  53       2.339e-01      -5.957e-01       5.410e-09          -0.000           0.000           1.000       1.972e-04         -0.0024
  54       2.221e-01      -5.957e-01      -3.730e-09           0.000           0.000           1.000       3.160e-04         -0.0036
  55       2.044e-01      -5.957e-01       2.181e-08          -0.000           0.000           1.000       4.164e-04         -0.0049
  56       1.818e-01      -5.957e-01       3.641e-08           0.000          -0.000           1.000       4.925e-04         -0.0065
  57       1.555e-01      -5.957e-01       3.446e-07           0.000           0.000           1.000       5.401e-04         -0.0083
  58       1.272e-01      -5.957e-01       9.930e-07           0.000          -0.000           1.000       5.562e-04         -0.0107
  59       9.851e-02      -5.957e-01      -1.336e-08          -0.000           0.000           1.000       5.401e-04         -0.0157
  60       7.104e-02      -5.957e-01      -1.739e-06           0.000           0.000           1.000       4.925e-04         -0.0198
  61       4.642e-02      -5.957e-01       2.241e-06          -0.000           0.000           1.000       4.164e-04         -0.0306
  62       2.607e-02      -5.957e-01      -2.672e-07          -0.000           0.000           1.000       3.160e-04         -0.0486
  63       1.118e-02      -5.957e-01      -8.133e-07           0.000           0.000           1.000       1.972e-04         -0.0875
  64       2.615e-03      -5.957e-01      -4.842e-07           0.000           0.000           1.000       6.705e-05         -0.2174
Strip 6
  65       2.391e-01      -5.745e-01       3.006e-09           0.000           0.000           1.000       8.101e-05         -0.0016
  66       2.339e-01      -5.745e-01       5.410e-09          -0.000           0.000           1.000       2.383e-04         -0.0028
  67       2.221e-01      -5.745e-01      -3.730e-09           0.000           0.000           1.000       3.818e-04         -0.0043
  68       2.044e-01      -5.745e-01       2.181e-08          -0.000           0.000           1.000       5.030e-04         -0.0059
  69       1.818e-01      -5.745e-01       3.641e-08           0.000           0.000           1.000       5.951e-04         -0.0078
  70       1.555e-01      -5.745e-01       3.446e-07           0.000           0.000           1.000       6.525e-04         -0.0101
  71       1.272e-01      -5.745e-01       9.930e-07           0.000           0.000           1.000       6.721e-04         -0.0131
  72       9.851e-02      -5.745e-01      -1.336e-08          -0.000           0.000           1.000       6.525e-04         -0.0188
  73       7.104e-02      -5.745e-01      -1.739e-06           0.000           0.000           1.000       5.951e-04         -0.0240
  74       4.642e-02      -5.745e-01       2.241e-06          -0.000           0.000           1.000       5.030e-04         -0.0361
  75       2.607e-02      -5.745e-01      -2.672e-07          -0.000           0.000           1.000       3.818e-04         -0.0557
  76       1.118e-02      -5.745e-01      -8.133e-07           0.000           0.000           1.000       2.383e-04         -0.0978
  77       2.615e-03      -5.745e-01      -4.842e-07           0.000           0.000           1.000       8.101e-05         -0.2406
Strip 7
  78       2.391e-01      -5.493e-01       3.006e-09           0.000           0.000           1.000       9.442e-05         -0.0018
  79       2.339e-01      -5.493e-01       5.410e-09          -0.000           0.000           1.000       2.778e-04         -0.0033
  80       2.221e-01      -5.493e-01      -3.730e-09           0.000          -0.000           1.000       4.450e-04         -0.0050
  81       2.044e-01      -5.493e-01       2.181e-08          -0.000           0.000           1.000       5.863e-04         -0.0069
  82       1.818e-01      -5.493e-01       3.641e-08           0.000           0.000           1.000       6.936e-04         -0.0092
  83       1.555e-01      -5.493e-01       3.446e-07           0.000           0.000           1.000       7.605e-04         -0.0119
  84       1.272e-01      -5.493e-01       9.930e-07           0.000          -0.000           1.000       7.833e-04         -0.0154
  85       9.851e-02      -5.493e-01      -1.336e-08          -0.000           0.000           1.000       7.605e-04         -0.0218
  86       7.104e-02      -5.493e-01      -1.739e-06           0.000           0.000           1.000       6.936e-04         -0.0278
  87       4.642e-02      -5.493e-01       2.241e-06          -0.000           0.000           1.000       5.863e-04         -0.0408
  88       2.607e-02      -5.493e-01      -2.672e-07          -0.000           0.000           1.000       4.450e-04         -0.0617
  89       1.118e-02      -5.493e-01      -8.133e-07           0.000           0.000           1.000       2.778e-04         -0.1068
  90       2.615e-03      -5.493e-01      -4.842e-07           0.000           0.000           1.000       9.442e-05         -0.2610
Strip 8
  91       2.391e-01      -5.204e-01       3.006e-09           0.000           0.000           1.000       1.072e-04         -0.0021
  92       2.339e-01      -5.204e-01       5.410e-09          -0.000           0.000           1.000       3.153e-04         -0.0038
  93       2.221e-01      -5.204e-01      -3.730e-09           0.000           0.000           1.000       5.051e-04         -0.0057
  94       2.044e-01      -5.204e-01       2.181e-08          -0.000          -0.000           1.000       6.656e-04         -0.0079
  95       1.818e-01      -5.204e-01       3.641e-08           0.000           0.000           1.000       7.873e-04         -0.0105
  96       1.555e-01      -5.204e-01       3.446e-07           0.000           0.000           1.000       8.633e-04         -0.0136
  97       1.272e-01      -5.204e-01       9.930e-07           0.000           0.000           1.000       8.892e-04         -0.0176
  98       9.851e-02      -5.204e-01      -1.336e-08          -0.000          -0.000           1.000       8.633e-04         -0.0245
  99       7.104e-02      -5.204e-01      -1.739e-06           0.000           0.000           1.000       7.873e-04         -0.0311
 100       4.642e-02      -5.204e-01       2.241e-06          -0.000          -0.000           1.000       6.656e-04         -0.0448
 101       2.607e-02      -5.204e-01      -2.672e-07          -0.000           0.000           1.000       5.051e-04         -0.0668
 102       1.118e-02      -5.204e-01      -8.133e-07           0.000           0.000           1.000       3.153e-04         -0.1146
 103       2.615e-03      -5.204e-01      -4.842e-07           0.000           0.000           1.000       1.072e-04         -0.2788
Strip 9
 104       2.391e-01      -4.880e-01       3.006e-09           0.000           0.000           1.000       1.192e-04         -0.0024
 105       2.339e-01      -4.880e-01       5.410e-09          -0.000           0.000           1.000       3.507e-04         -0.0042
 106       2.221e-01      -4.880e-01      -3.730e-09           0.000           0.000           1.000       5.618e-04         -0.0064
 107       2.044e-01      -4.880e-01       2.181e-08          -0.000           0.000           1.000       7.403e-04         -0.0089
 108       1.818e-01      -4.880e-01       3.641e-08           0.000          -0.000           1.000       8.757e-04         -0.0118
 109       1.555e-01      -4.880e-01       3.446e-07           0.000          -0.000           1.000       9.602e-04         -0.0152
 110       1.272e-01      -4.880e-01       9.930e-07           0.000           0.000           1.000       9.890e-04         -0.0196
 111       9.851e-02      -4.880e-01      -1.336e-08          -0.000          -0.000           1.000       9.602e-04         -0.0269
 112       7.104e-02      -4.880e-01      -1.739e-06           0.000           0.000           1.000       8.757e-04         -0.0340
 113       4.642e-02      -4.880e-01       2.241e-06          -0.000          -0.000           1.000       7.403e-04         -0.0483
 114       2.607e-02      -4.880e-01      -2.672e-07          -0.000          -0.000           1.000       5.618e-04         -0.0712
 115       1.118e-02      -4.880e-01      -8.133e-07           0.000          -0.000           1.000       3.507e-04         -0.1213
 116       2.615e-03      -4.880e-01      -4.842e-07           0.000           0.000           1.000       1.192e-04         -0.2944
Strip 10
 117       2.391e-01      -4.522e-01       3.006e-09           0.000           0.000           1.000       1.304e-04         -0.0026
 118       2.339e-01      -4.522e-01       5.410e-09          -0.000           0.000           1.000       3.837e-04         -0.0047
 119       2.221e-01      -4.522e-01      -3.730e-09           0.000          -0.000           1.000       6.147e-04         -0.0070
 120       2.044e-01      -4.522e-01       2.181e-08          -0.000          -0.000           1.000       8.099e-04         -0.0097
 121       1.818e-01      -4.522e-01       3.641e-08           0.000           0.000           1.000       9.581e-04         -0.0129
 122       1.555e-01      -4.522e-01       3.446e-07           0.000           0.000           1.000       1.051e-03         -0.0166
 123       1.272e-01      -4.522e-01       9.930e-07           0.000           0.000           1.000       1.082e-03         -0.0213
 124       9.851e-02      -4.522e-01      -1.336e-08          -0.000           0.000           1.000       1.051e-03         -0.0290
 125       7.104e-02      -4.522e-01      -1.739e-06           0.000           0.000           1.000       9.581e-04         -0.0364
 126       4.642e-02      -4.522e-01       2.241e-06          -0.000           0.000           1.000       8.099e-04         -0.0512
 127       2.607e-02      -4.522e-01      -2.672e-07          -0.000           0.000           1.000       6.147e-04         -0.0750
 128       1.118e-02      -4.522e-01      -8.133e-07           0.000          -0.000           1.000       3.837e-04         -0.1271
 129       2.615e-03      -4.522e-01      -4.842e-07           0.000           0.000           1.000       1.304e-04         -0.3079
Strip 11
 130       2.391e-01      -4.133e-01       3.006e-09           0.000           0.000           1.000       1.407e-04         -0.0028
 131       2.339e-01      -4.133e-01       5.410e-09          -0.000           0.000           1.000       4.141e-04         -0.0050
 132       2.221e-01      -4.133e-01      -3.730e-09           0.000          -0.000           1.000       6.633e-04         -0.0076
 133       2.044e-01      -4.133e-01       2.181e-08          -0.000           0.000           1.000       8.740e-04         -0.0105
 134       1.818e-01      -4.133e-01       3.641e-08           0.000           0.000           1.000       1.034e-03         -0.0139
 135       1.555e-01      -4.133e-01       3.446e-07           0.000           0.000           1.000       1.134e-03         -0.0178
 136       1.272e-01      -4.133e-01       9.930e-07           0.000           0.000           1.000       1.168e-03         -0.0228
 137       9.851e-02      -4.133e-01      -1.336e-08          -0.000           0.000           1.000       1.134e-03         -0.0307
 138       7.104e-02      -4.133e-01      -1.739e-06           0.000           0.000           1.000       1.034e-03         -0.0384
 139       4.642e-02      -4.133e-01       2.241e-06          -0.000           0.000           1.000       8.740e-04         -0.0536
 140       2.607e-02      -4.133e-01      -2.672e-07          -0.000           0.000           1.000       6.633e-04         -0.0782
 141       1.118e-02      -4.133e-01      -8.133e-07           0.000           0.000           1.000       4.141e-04         -0.1321
 142       2.615e-03      -4.133e-01      -4.842e-07           0.000           0.000           1.000       1.407e-04         -0.3196
Strip 12
 143       2.391e-01      -3.716e-01       3.006e-09           0.000           0.000           1.000       1.501e-04         -0.0030
 144       2.339e-01      -3.716e-01       5.410e-09          -0.000           0.000           1.000       4.416e-04         -0.0054
 145       2.221e-01      -3.716e-01      -3.730e-09           0.000           0.000           1.000       7.074e-04         -0.0081
 146       2.044e-01      -3.716e-01       2.181e-08          -0.000          -0.000           1.000       9.322e-04         -0.0112
 147       1.818e-01      -3.716e-01       3.641e-08           0.000           0.000           1.000       1.103e-03         -0.0147
 148       1.555e-01      -3.716e-01       3.446e-07           0.000           0.000           1.000       1.209e-03         -0.0188
 149       1.272e-01      -3.716e-01       9.930e-07           0.000          -0.000           1.000       1.245e-03         -0.0240
 150       9.851e-02      -3.716e-01      -1.336e-08          -0.000           0.000           1.000       1.209e-03         -0.0321
 151       7.104e-02      -3.716e-01      -1.739e-06           0.000           0.000           1.000       1.103e-03         -0.0401
 152       4.642e-02      -3.716e-01       2.241e-06          -0.000          -0.000           1.000       9.322e-04         -0.0557
 153       2.607e-02      -3.716e-01      -2.672e-07          -0.000          -0.000           1.000       7.074e-04         -0.0809
 154       1.118e-02      -3.716e-01      -8.133e-07           0.000           0.000           1.000       4.416e-04         -0.1363
 155       2.615e-03      -3.716e-01      -4.842e-07           0.000           0.000           1.000       1.501e-04         -0.3295
Strip 13
 156       2.391e-01      -3.273e-01       3.006e-09           0.000           0.000           1.000       1.585e-04         -0.0032
 157       2.339e-01      -3.273e-01       5.410e-09          -0.000           0.000           1.000       4.661e-04         -0.0056
 158       2.221e-01      -3.273e-01      -3.730e-09           0.000           0.000           1.000       7.467e-04         -0.0085
 159       2.044e-01      -3.273e-01       2.181e-08          -0.000           0.000           1.000       9.839e-04         -0.0117
 160       1.818e-01      -3.273e-01       3.641e-08           0.000           0.000           1.000       1.164e-03         -0.0154
 161       1.555e-01      -3.273e-01       3.446e-07           0.000           0.000           1.000       1.276e-03         -0.0197
 162       1.272e-01      -3.273e-01       9.930e-07           0.000           0.000           1.000       1.315e-03         -0.0250
 163       9.851e-02      -3.273e-01      -1.336e-08          -0.000           0.000           1.000       1.276e-03         -0.0333
 164       7.104e-02      -3.273e-01      -1.739e-06           0.000           0.000           1.000       1.164e-03         -0.0415
 165       4.642e-02      -3.273e-01       2.241e-06          -0.000           0.000           1.000       9.839e-04         -0.0574
 166       2.607e-02      -3.273e-01      -2.672e-07          -0.000           0.000           1.000       7.467e-04         -0.0832
 167       1.118e-02      -3.273e-01      -8.133e-07           0.000           0.000           1.000       4.661e-04         -0.1398
 168       2.615e-03      -3.273e-01      -4.842e-07           0.000           0.000           1.000       1.585e-04         -0.3378
Strip 14
 169       2.391e-01      -2.808e-01       3.006e-09           0.000           0.000           1.000       1.657e-04         -0.0033
 170       2.339e-01      -2.808e-01       5.410e-09          -0.000           0.000           1.000       4.875e-04         -0.0059
 171       2.221e-01      -2.808e-01      -3.730e-09           0.000          -0.000           1.000       7.809e-04         -0.0088
 172       2.044e-01      -2.808e-01       2.181e-08          -0.000           0.000           1.000       1.029e-03         -0.0122
 173       1.818e-01      -2.808e-01       3.641e-08           0.000           0.000           1.000       1.217e-03         -0.0160
 174       1.555e-01      -2.808e-01       3.446e-07           0.000           0.000           1.000       1.335e-03         -0.0204
 175       1.272e-01      -2.808e-01       9.930e-07           0.000          -0.000           1.000       1.375e-03         -0.0258
 176       9.851e-02      -2.808e-01      -1.336e-08          -0.000           0.000           1.000       1.335e-03         -0.0343
 177       7.104e-02      -2.808e-01      -1.739e-06           0.000           0.000           1.000       1.217e-03         -0.0427
 178       4.642e-02      -2.808e-01       2.241e-06          -0.000           0.000           1.000       1.029e-03         -0.0588
 179       2.607e-02      -2.808e-01      -2.672e-07          -0.000           0.000           1.000       7.809e-04         -0.0850
 180       1.118e-02      -2.808e-01      -8.133e-07           0.000           0.000           1.000       4.875e-04         -0.1427
 181       2.615e-03      -2.808e-01      -4.842e-07           0.000           0.000           1.000       1.657e-04         -0.3447
Strip 15
 182       2.391e-01      -2.324e-01       3.006e-09           0.000           0.000           1.000       1.718e-04         -0.0034
 183       2.339e-01      -2.324e-01       5.410e-09          -0.000           0.000           1.000       5.055e-04         -0.0061
 184       2.221e-01      -2.324e-01      -3.730e-09           0.000           0.000           1.000       8.098e-04         -0.0091
 185       2.044e-01      -2.324e-01       2.181e-08          -0.000          -0.000           1.000       1.067e-03         -0.0125
 186       1.818e-01      -2.324e-01       3.641e-08           0.000           0.000           1.000       1.262e-03         -0.0165
 187       1.555e-01      -2.324e-01       3.446e-07           0.000           0.000           1.000       1.384e-03         -0.0209
 188       1.272e-01      -2.324e-01       9.930e-07           0.000           0.000           1.000       1.426e-03         -0.0265
 189       9.851e-02      -2.324e-01      -1.336e-08          -0.000          -0.000           1.000       1.384e-03         -0.0351
 190       7.104e-02      -2.324e-01      -1.739e-06           0.000           0.000           1.000       1.262e-03         -0.0436
 191       4.642e-02      -2.324e-01       2.241e-06          -0.000           0.000           1.000       1.067e-03         -0.0599
 192       2.607e-02      -2.324e-01      -2.672e-07          -0.000           0.000           1.000       8.098e-04         -0.0865
 193       1.118e-02      -2.324e-01      -8.133e-07           0.000          -0.000           1.000       5.055e-04         -0.1451
 194       2.615e-03      -2.324e-01      -4.842e-07           0.000           0.000           1.000       1.718e-04         -0.3502
Strip 16
 195       2.391e-01      -1.825e-01       3.006e-09           0.000           0.000           1.000       1.768e-04         -0.0035
 196       2.339e-01      -1.825e-01       5.410e-09          -0.000           0.000           1.000       5.201e-04         -0.0062
 197       2.221e-01      -1.825e-01      -3.730e-09           0.000          -0.000           1.000       8.331e-04         -0.0093
 198       2.044e-01      -1.825e-01       2.181e-08          -0.000           0.000           1.000       1.098e-03         -0.0128
 199       1.818e-01      -1.825e-01       3.641e-08           0.000           0.000           1.000       1.299e-03         -0.0168
 200       1.555e-01      -1.825e-01       3.446e-07           0.000           0.000           1.000       1.424e-03         -0.0214
 201       1.272e-01      -1.825e-01       9.930e-07           0.000           0.000           1.000       1.467e-03         -0.0270
 202       9.851e-02      -1.825e-01      -1.336e-08          -0.000           0.000           1.000       1.424e-03         -0.0357
 203       7.104e-02      -1.825e-01      -1.739e-06           0.000           0.000           1.000       1.299e-03         -0.0443
 204       4.642e-02      -1.825e-01       2.241e-06          -0.000          -0.000           1.000       1.098e-03         -0.0608
 205       2.607e-02      -1.825e-01      -2.672e-07          -0.000           0.000           1.000       8.331e-04         -0.0876
 206       1.118e-02      -1.825e-01      -8.133e-07           0.000           0.000           1.000       5.201e-04         -0.1469
 207       2.615e-03      -1.825e-01      -4.842e-07           0.000           0.000           1.000       1.768e-04         -0.3545
Strip 17
 208       2.391e-01      -1.312e-01       3.006e-09           0.000           0.000           1.000       1.805e-04         -0.0035
 209       2.339e-01      -1.312e-01       5.410e-09          -0.000           0.000           1.000       5.311e-04         -0.0063
 210       2.221e-01      -1.312e-01      -3.730e-09           0.000           0.000           1.000       8.508e-04         -0.0095
 211       2.044e-01      -1.312e-01       2.181e-08          -0.000           0.000           1.000       1.121e-03         -0.0130
 212       1.818e-01      -1.312e-01       3.641e-08           0.000          -0.000           1.000       1.326e-03         -0.0171
 213       1.555e-01      -1.312e-01       3.446e-07           0.000           0.000           1.000       1.454e-03         -0.0217
 214       1.272e-01      -1.312e-01       9.930e-07           0.000           0.000           1.000       1.498e-03         -0.0274
 215       9.851e-02      -1.312e-01      -1.336e-08          -0.000           0.000           1.000       1.454e-03         -0.0361
 216       7.104e-02      -1.312e-01      -1.739e-06           0.000           0.000           1.000       1.326e-03         -0.0448
 217       4.642e-02      -1.312e-01       2.241e-06          -0.000           0.000           1.000       1.121e-03         -0.0614
 218       2.607e-02      -1.312e-01      -2.672e-07          -0.000          -0.000           1.000       8.508e-04         -0.0885
 219       1.118e-02      -1.312e-01      -8.133e-07           0.000          -0.000           1.000       5.311e-04         -0.1483
 220       2.615e-03      -1.312e-01      -4.842e-07           0.000           0.000           1.000       1.805e-04         -0.3577
Strip 18
 221       2.391e-01      -7.910e-02       3.006e-09           0.000           0.000           1.000       1.830e-04         -0.0036
 222       2.339e-01      -7.910e-02       5.410e-09          -0.000           0.000           1.000       5.385e-04         -0.0064
 223       2.221e-01      -7.910e-02      -3.730e-09           0.000           0.000           1.000       8.626e-04         -0.0096
 224       2.044e-01      -7.910e-02       2.181e-08          -0.000          -0.000           1.000       1.137e-03         -0.0132
 225       1.818e-01      -7.910e-02       3.641e-08           0.000           0.000           1.000       1.345e-03         -0.0172
 226       1.555e-01      -7.910e-02       3.446e-07           0.000           0.000           1.000       1.474e-03         -0.0219
 227       1.272e-01      -7.910e-02       9.930e-07           0.000          -0.000           1.000       1.518e-03         -0.0276
 228       9.851e-02      -7.910e-02      -1.336e-08          -0.000           0.000           1.000       1.474e-03         -0.0364
 229       7.104e-02      -7.910e-02      -1.739e-06           0.000           0.000           1.000       1.345e-03         -0.0451
 230       4.642e-02      -7.910e-02       2.241e-06          -0.000          -0.000           1.000       1.137e-03         -0.0618
 231       2.607e-02      -7.910e-02      -2.672e-07          -0.000          -0.000           1.000       8.626e-04         -0.0890
 232       1.118e-02      -7.910e-02      -8.133e-07           0.000           0.000           1.000       5.385e-04         -0.1491
 233       2.615e-03      -7.910e-02      -4.842e-07           0.000           0.000           1.000       1.830e-04         -0.3597
Strip 19
 234       2.391e-01      -2.643e-02       3.006e-09           0.000           0.000           1.000       1.843e-04         -0.0036
 235       2.339e-01      -2.643e-02       5.410e-09          -0.000           0.000           1.000       5.422e-04         -0.0064
 236       2.221e-01      -2.643e-02      -3.730e-09           0.000           0.000           1.000       8.685e-04         -0.0096
 237       2.044e-01      -2.643e-02       2.181e-08          -0.000           0.000           1.000       1.144e-03         -0.0132
 238       1.818e-01      -2.643e-02       3.641e-08           0.000           0.000           1.000       1.354e-03         -0.0173
 239       1.555e-01      -2.643e-02       3.446e-07           0.000           0.000           1.000       1.484e-03         -0.0220
 240       1.272e-01      -2.643e-02       9.930e-07           0.000           0.000           1.000       1.529e-03         -0.0277
 241       9.851e-02      -2.643e-02      -1.336e-08          -0.000          -0.000           1.000       1.484e-03         -0.0365
 242       7.104e-02      -2.643e-02      -1.739e-06           0.000           0.000           1.000       1.354e-03         -0.0453
 243       4.642e-02      -2.643e-02       2.241e-06          -0.000           0.000           1.000       1.144e-03         -0.0620
 244       2.607e-02      -2.643e-02      -2.672e-07          -0.000           0.000           1.000       8.685e-04         -0.0893
 245       1.118e-02      -2.643e-02      -8.133e-07           0.000           0.000           1.000       5.422e-04         -0.1496
 246       2.615e-03      -2.643e-02      -4.842e-07           0.000           0.000           1.000       1.843e-04         -0.3608
Strip 20
 247       2.391e-01       2.643e-02       3.006e-09           0.000           0.000           1.000       1.843e-04         -0.0036
 248       2.339e-01       2.643e-02       5.410e-09          -0.000           0.000           1.000       5.422e-04         -0.0064
 249       2.221e-01       2.643e-02      -3.730e-09           0.000           0.000           1.000       8.685e-04         -0.0096
 250       2.044e-01       2.643e-02       2.181e-08          -0.000          -0.000           1.000       1.144e-03         -0.0132
 251       1.818e-01       2.643e-02       3.641e-08           0.000           0.000           1.000       1.354e-03         -0.0173
 252       1.555e-01       2.643e-02       3.446e-07           0.000           0.000           1.000       1.484e-03         -0.0220
 253       1.272e-01       2.643e-02       9.930e-07           0.000           0.000           1.000       1.529e-03         -0.0277
 254       9.851e-02       2.643e-02      -1.336e-08          -0.000           0.000           1.000       1.484e-03         -0.0365
 255       7.104e-02       2.643e-02      -1.739e-06           0.000           0.000           1.000       1.354e-03         -0.0453
 256       4.642e-02       2.643e-02       2.241e-06          -0.000           0.000           1.000       1.144e-03         -0.0620
 257       2.607e-02       2.643e-02      -2.672e-07          -0.000           0.000           1.000       8.685e-04         -0.0893
 258       1.118e-02       2.643e-02      -8.133e-07           0.000           0.000           1.000       5.422e-04         -0.1496
 259       2.615e-03       2.643e-02      -4.842e-07           0.000           0.000           1.000       1.843e-04         -0.3608
Strip 21
 260       2.391e-01       7.910e-02       3.006e-09           0.000           0.000           1.000       1.830e-04         -0.0036
 261       2.339e-01       7.910e-02       5.410e-09          -0.000          -0.000           1.000       5.385e-04         -0.0064
 262       2.221e-01       7.910e-02      -3.730e-09           0.000           0.000           1.000       8.626e-04         -0.0096
 263       2.044e-01       7.910e-02       2.181e-08          -0.000           0.000           1.000       1.137e-03         -0.0132
 264       1.818e-01       7.910e-02       3.641e-08           0.000          -0.000           1.000       1.345e-03         -0.0172
 265       1.555e-01       7.910e-02       3.446e-07           0.000           0.000           1.000       1.474e-03         -0.0219
 266       1.272e-01       7.910e-02       9.930e-07           0.000           0.000           1.000       1.518e-03         -0.0276
 267       9.851e-02       7.910e-02      -1.336e-08          -0.000          -0.000           1.000       1.474e-03         -0.0364
 268       7.104e-02       7.910e-02      -1.739e-06           0.000           0.000           1.000       1.345e-03         -0.0451
 269       4.642e-02       7.910e-02       2.241e-06          -0.000           0.000           1.000       1.137e-03         -0.0618
 270       2.607e-02       7.910e-02      -2.672e-07          -0.000           0.000           1.000       8.626e-04         -0.0890
 271       1.118e-02       7.910e-02      -8.133e-07           0.000          -0.000           1.000       5.385e-04         -0.1491
 272       2.615e-03       7.910e-02      -4.842e-07           0.000           0.000           1.000       1.830e-04         -0.3597
Strip 22
 273       2.391e-01       1.312e-01       3.006e-09           0.000           0.000           1.000       1.805e-04         -0.0035
 274       2.339e-01       1.312e-01       5.410e-09          -0.000           0.000           1.000       5.311e-04         -0.0063
 275       2.221e-01       1.312e-01      -3.730e-09           0.000          -0.000           1.000       8.508e-04         -0.0095
 276       2.044e-01       1.312e-01       2.181e-08          -0.000           0.000           1.000       1.121e-03         -0.0130
 277       1.818e-01       1.312e-01       3.641e-08           0.000          -0.000           1.000       1.326e-03         -0.0171
 278       1.555e-01       1.312e-01       3.446e-07           0.000           0.000           1.000       1.454e-03         -0.0217
 279       1.272e-01       1.312e-01       9.930e-07           0.000          -0.000           1.000       1.498e-03         -0.0274
 280       9.851e-02       1.312e-01      -1.336e-08          -0.000           0.000           1.000       1.454e-03         -0.0361
 281       7.104e-02       1.312e-01      -1.739e-06           0.000          -0.000           1.000       1.326e-03         -0.0448
 282       4.642e-02       1.312e-01       2.241e-06          -0.000           0.000           1.000       1.121e-03         -0.0614
 283       2.607e-02       1.312e-01      -2.672e-07          -0.000           0.000           1.000       8.508e-04         -0.0885
 284       1.118e-02       1.312e-01      -8.133e-07           0.000           0.000           1.000       5.311e-04         -0.1483
 285       2.615e-03       1.312e-01      -4.842e-07           0.000           0.000           1.000       1.805e-04         -0.3577
Strip 23
 286       2.391e-01       1.825e-01       3.006e-09           0.000           0.000           1.000       1.768e-04         -0.0035
 287       2.339e-01       1.825e-01       5.410e-09          -0.000           0.000           1.000       5.201e-04         -0.0062
 288       2.221e-01       1.825e-01      -3.730e-09           0.000           0.000           1.000       8.331e-04         -0.0093
 289       2.044e-01       1.825e-01       2.181e-08          -0.000          -0.000           1.000       1.098e-03         -0.0128
 290       1.818e-01       1.825e-01       3.641e-08           0.000           0.000           1.000       1.299e-03         -0.0168
 291       1.555e-01       1.825e-01       3.446e-07           0.000           0.000           1.000       1.424e-03         -0.0214
 292       1.272e-01       1.825e-01       9.930e-07           0.000           0.000           1.000       1.467e-03         -0.0270
 293       9.851e-02       1.825e-01      -1.336e-08          -0.000          -0.000           1.000       1.424e-03         -0.0357
 294       7.104e-02       1.825e-01      -1.739e-06           0.000           0.000           1.000       1.299e-03         -0.0443
 295       4.642e-02       1.825e-01       2.241e-06          -0.000           0.000           1.000       1.098e-03         -0.0608
 296       2.607e-02       1.825e-01      -2.672e-07          -0.000           0.000           1.000       8.331e-04         -0.0876
 297       1.118e-02       1.825e-01      -8.133e-07           0.000          -0.000           1.000       5.201e-04         -0.1469
 298       2.615e-03       1.825e-01      -4.842e-07           0.000           0.000           1.000       1.768e-04         -0.3545
Strip 24
 299       2.391e-01       2.324e-01       3.006e-09           0.000           0.000           1.000       1.718e-04         -0.0034
 300       2.339e-01       2.324e-01       5.410e-09          -0.000           0.000           1.000       5.055e-04         -0.0061
 301       2.221e-01       2.324e-01      -3.730e-09           0.000           0.000           1.000       8.098e-04         -0.0091
 302       2.044e-01       2.324e-01       2.181e-08          -0.000           0.000           1.000       1.067e-03         -0.0125
 303       1.818e-01       2.324e-01       3.641e-08           0.000          -0.000           1.000       1.262e-03         -0.0165
 304       1.555e-01       2.324e-01       3.446e-07           0.000           0.000           1.000       1.384e-03         -0.0209
 305       1.272e-01       2.324e-01       9.930e-07           0.000           0.000           1.000       1.426e-03         -0.0265
 306       9.851e-02       2.324e-01      -1.336e-08          -0.000          -0.000           1.000       1.384e-03         -0.0351
 307       7.104e-02       2.324e-01      -1.739e-06           0.000           0.000           1.000       1.262e-03         -0.0436
 308       4.642e-02       2.324e-01       2.241e-06          -0.000           0.000           1.000       1.067e-03         -0.0599
 309       2.607e-02       2.324e-01      -2.672e-07          -0.000           0.000           1.000       8.098e-04         -0.0865
 310       1.118e-02       2.324e-01      -8.133e-07           0.000           0.000           1.000       5.055e-04         -0.1451
 311       2.615e-03       2.324e-01      -4.842e-07           0.000           0.000           1.000       1.718e-04         -0.3502
Strip 25
 312       2.391e-01       2.808e-01       3.006e-09           0.000           0.000           1.000       1.657e-04         -0.0033
 313       2.339e-01       2.808e-01       5.410e-09          -0.000           0.000           1.000       4.875e-04         -0.0059
 314       2.221e-01       2.808e-01      -3.730e-09           0.000          -0.000           1.000       7.809e-04         -0.0088
 315       2.044e-01       2.808e-01       2.181e-08          -0.000           0.000           1.000       1.029e-03         -0.0122
 316       1.818e-01       2.808e-01       3.641e-08           0.000           0.000           1.000       1.217e-03         -0.0160
 317       1.555e-01       2.808e-01       3.446e-07           0.000           0.000           1.000       1.335e-03         -0.0204
 318       1.272e-01       2.808e-01       9.930e-07           0.000          -0.000           1.000       1.375e-03         -0.0258
 319       9.851e-02       2.808e-01      -1.336e-08          -0.000           0.000           1.000       1.335e-03         -0.0343
 320       7.104e-02       2.808e-01      -1.739e-06           0.000           0.000           1.000       1.217e-03         -0.0427
 321       4.642e-02       2.808e-01       2.241e-06          -0.000           0.000           1.000       1.029e-03         -0.0588
 322       2.607e-02       2.808e-01      -2.672e-07          -0.000           0.000           1.000       7.809e-04         -0.0850
 323       1.118e-02       2.808e-01      -8.133e-07           0.000           0.000           1.000       4.875e-04         -0.1427
 324       2.615e-03       2.808e-01      -4.842e-07           0.000           0.000           1.000       1.657e-04         -0.3447
Strip 26
 325       2.391e-01       3.273e-01       3.006e-09           0.000           0.000           1.000       1.585e-04         -0.0032
 326       2.339e-01       3.273e-01       5.410e-09          -0.000           0.000           1.000       4.661e-04         -0.0056
 327       2.221e-01       3.273e-01      -3.730e-09           0.000           0.000           1.000       7.467e-04         -0.0085
 328       2.044e-01       3.273e-01       2.181e-08          -0.000           0.000           1.000       9.839e-04         -0.0117
 329       1.818e-01       3.273e-01       3.641e-08           0.000           0.000           1.000       1.164e-03         -0.0154
 330       1.555e-01       3.273e-01       3.446e-07           0.000           0.000           1.000       1.276e-03         -0.0197
 331       1.272e-01       3.273e-01       9.930e-07           0.000           0.000           1.000       1.315e-03         -0.0250
 332       9.851e-02       3.273e-01      -1.336e-08          -0.000           0.000           1.000       1.276e-03         -0.0333
 333       7.104e-02       3.273e-01      -1.739e-06           0.000           0.000           1.000       1.164e-03         -0.0415
 334       4.642e-02       3.273e-01       2.241e-06          -0.000          -0.000           1.000       9.839e-04         -0.0574
 335       2.607e-02       3.273e-01      -2.672e-07          -0.000          -0.000           1.000       7.467e-04         -0.0832
 336       1.118e-02       3.273e-01      -8.133e-07           0.000           0.000           1.000       4.661e-04         -0.1398
 337       2.615e-03       3.273e-01      -4.842e-07           0.000           0.000           1.000       1.585e-04         -0.3378
Strip 27
 338       2.391e-01       3.716e-01       3.006e-09           0.000           0.000           1.000       1.501e-04         -0.0030
 339       2.339e-01       3.716e-01       5.410e-09          -0.000           0.000           1.000       4.416e-04         -0.0054
 340       2.221e-01       3.716e-01      -3.730e-09           0.000           0.000           1.000       7.074e-04         -0.0081
 341       2.044e-01       3.716e-01       2.181e-08          -0.000          -0.000           1.000       9.322e-04         -0.0112
 342       1.818e-01       3.716e-01       3.641e-08           0.000           0.000           1.000       1.103e-03         -0.0147
 343       1.555e-01       3.716e-01       3.446e-07           0.000           0.000           1.000       1.209e-03         -0.0188
 344       1.272e-01       3.716e-01       9.930e-07           0.000           0.000           1.000       1.245e-03         -0.0240
 345       9.851e-02       3.716e-01      -1.336e-08          -0.000           0.000           1.000       1.209e-03         -0.0321
 346       7.104e-02       3.716e-01      -1.739e-06           0.000           0.000           1.000       1.103e-03         -0.0401
 347       4.642e-02       3.716e-01       2.241e-06          -0.000           0.000           1.000       9.322e-04         -0.0557
 348       2.607e-02       3.716e-01      -2.672e-07          -0.000           0.000           1.000       7.074e-04         -0.0809
 349       1.118e-02       3.716e-01      -8.133e-07           0.000          -0.000           1.000       4.416e-04         -0.1363
 350       2.615e-03       3.716e-01      -4.842e-07           0.000           0.000           1.000       1.501e-04         -0.3295
Strip 28
 351       2.391e-01       4.133e-01       3.006e-09           0.000           0.000           1.000       1.407e-04         -0.0028
 352       2.339e-01       4.133e-01       5.410e-09          -0.000           0.000           1.000       4.141e-04         -0.0050
 353       2.221e-01       4.133e-01      -3.730e-09           0.000          -0.000           1.000       6.633e-04         -0.0076
 354       2.044e-01       4.133e-01       2.181e-08          -0.000           0.000           1.000       8.740e-04         -0.0105
 355       1.818e-01       4.133e-01       3.641e-08           0.000           0.000           1.000       1.034e-03         -0.0139
 356       1.555e-01       4.133e-01       3.446e-07           0.000           0.000           1.000       1.134e-03         -0.0178
 357       1.272e-01       4.133e-01       9.930e-07           0.000           0.000           1.000       1.168e-03         -0.0228
 358       9.851e-02       4.133e-01      -1.336e-08          -0.000          -0.000           1.000       1.134e-03         -0.0307
 359       7.104e-02       4.133e-01      -1.739e-06           0.000           0.000           1.000       1.034e-03         -0.0384
 360       4.642e-02       4.133e-01       2.241e-06          -0.000           0.000           1.000       8.740e-04         -0.0536
 361       2.607e-02       4.133e-01      -2.672e-07          -0.000           0.000           1.000       6.633e-04         -0.0782
 362       1.118e-02       4.133e-01      -8.133e-07           0.000           0.000           1.000       4.141e-04         -0.1321
 363       2.615e-03       4.133e-01      -4.842e-07           0.000           0.000           1.000       1.407e-04         -0.3196
Strip 29
 364       2.391e-01       4.522e-01       3.006e-09           0.000           0.000           1.000       1.304e-04         -0.0026
 365       2.339e-01       4.522e-01       5.410e-09          -0.000           0.000           1.000       3.837e-04         -0.0047
 366       2.221e-01       4.522e-01      -3.730e-09           0.000          -0.000           1.000       6.147e-04         -0.0070
 367       2.044e-01       4.522e-01       2.181e-08          -0.000           0.000           1.000       8.099e-04         -0.0097
 368       1.818e-01       4.522e-01       3.641e-08           0.000          -0.000           1.000       9.581e-04         -0.0129
 369       1.555e-01       4.522e-01       3.446e-07           0.000           0.000           1.000       1.051e-03         -0.0166
 370       1.272e-01       4.522e-01       9.930e-07           0.000          -0.000           1.000       1.082e-03         -0.0213
 371       9.851e-02       4.522e-01      -1.336e-08          -0.000           0.000           1.000       1.051e-03         -0.0290
 372       7.104e-02       4.522e-01      -1.739e-06           0.000           0.000           1.000       9.581e-04         -0.0364
 373       4.642e-02       4.522e-01       2.241e-06          -0.000           0.000           1.000       8.099e-04         -0.0512
 374       2.607e-02       4.522e-01      -2.672e-07          -0.000           0.000           1.000       6.147e-04         -0.0750
 375       1.118e-02       4.522e-01      -8.133e-07           0.000           0.000           1.000       3.837e-04         -0.1271
 376       2.615e-03       4.522e-01      -4.842e-07           0.000           0.000           1.000       1.304e-04         -0.3079
Strip 30
 377       2.391e-01       4.880e-01       3.006e-09           0.000           0.000           1.000       1.192e-04         -0.0024
 378       2.339e-01       4.880e-01       5.410e-09          -0.000           0.000           1.000       3.507e-04         -0.0042
 379       2.221e-01       4.880e-01      -3.730e-09           0.000           0.000           1.000       5.618e-04         -0.0064
 380       2.044e-01       4.880e-01       2.181e-08          -0.000          -0.000           1.000       7.403e-04         -0.0089
 381       1.818e-01       4.880e-01       3.641e-08           0.000           0.000           1.000       8.757e-04         -0.0118
 382       1.555e-01       4.880e-01       3.446e-07           0.000           0.000           1.000       9.602e-04         -0.0152
 383       1.272e-01       4.880e-01       9.930e-07           0.000           0.000           1.000       9.890e-04         -0.0196
 384       9.851e-02       4.880e-01      -1.336e-08          -0.000          -0.000           1.000       9.602e-04         -0.0269
 385       7.104e-02       4.880e-01      -1.739e-06           0.000           0.000           1.000       8.757e-04         -0.0340
 386       4.642e-02       4.880e-01       2.241e-06          -0.000           0.000           1.000       7.403e-04         -0.0483
 387       2.607e-02       4.880e-01      -2.672e-07          -0.000           0.000           1.000       5.618e-04         -0.0712
 388       1.118e-02       4.880e-01      -8.133e-07           0.000          -0.000           1.000       3.507e-04         -0.1213
 389       2.615e-03       4.880e-01      -4.842e-07           0.000           0.000           1.000       1.192e-04         -0.2944
Strip 31
 390       2.391e-01       5.204e-01       3.006e-09           0.000           0.000           1.000       1.072e-04         -0.0021
 391       2.339e-01       5.204e-01       5.410e-09          -0.000           0.000           1.000       3.153e-04         -0.0038
 392       2.221e-01       5.204e-01      -3.730e-09           0.000           0.000           1.000       5.051e-04         -0.0057
 393       2.044e-01       5.204e-01       2.181e-08          -0.000           0.000           1.000       6.656e-04         -0.0079
 394       1.818e-01       5.204e-01       3.641e-08           0.000          -0.000           1.000       7.873e-04         -0.0105
 395       1.555e-01       5.204e-01       3.446e-07           0.000           0.000           1.000       8.633e-04         -0.0136
 396       1.272e-01       5.204e-01       9.930e-07           0.000          -0.000           1.000       8.892e-04         -0.0176
 397       9.851e-02       5.204e-01      -1.336e-08          -0.000           0.000           1.000       8.633e-04         -0.0245
 398       7.104e-02       5.204e-01      -1.739e-06           0.000           0.000           1.000       7.873e-04         -0.0311
 399       4.642e-02       5.204e-01       2.241e-06          -0.000          -0.000           1.000       6.656e-04         -0.0448
 400       2.607e-02       5.204e-01      -2.672e-07          -0.000          -0.000           1.000       5.051e-04         -0.0668
 401       1.118e-02       5.204e-01      -8.133e-07           0.000           0.000           1.000       3.153e-04         -0.1146
 402       2.615e-03       5.204e-01      -4.842e-07           0.000           0.000           1.000       1.072e-04         -0.2788
Strip 32
 403       2.391e-01       5.493e-01       3.006e-09           0.000           0.000           1.000       9.442e-05         -0.0018
 404       2.339e-01       5.493e-01       5.410e-09          -0.000           0.000           1.000       2.778e-04         -0.0033
 405       2.221e-01       5.493e-01      -3.730e-09           0.000           0.000           1.000       4.450e-04         -0.0050
 406       2.044e-01       5.493e-01       2.181e-08          -0.000          -0.000           1.000       5.863e-04         -0.0069
 407       1.818e-01       5.493e-01       3.641e-08           0.000           0.000           1.000       6.936e-04         -0.0092
 408       1.555e-01       5.493e-01       3.446e-07           0.000           0.000           1.000       7.605e-04         -0.0119
 409       1.272e-01       5.493e-01       9.930e-07           0.000          -0.000           1.000       7.833e-04         -0.0154
 410       9.851e-02       5.493e-01      -1.336e-08          -0.000           0.000           1.000       7.605e-04         -0.0218
 411       7.104e-02       5.493e-01      -1.739e-06           0.000           0.000           1.000       6.936e-04         -0.0278
 412       4.642e-02       5.493e-01       2.241e-06          -0.000           0.000           1.000       5.863e-04         -0.0408
 413       2.607e-02       5.493e-01      -2.672e-07          -0.000           0.000           1.000       4.450e-04         -0.0617
 414       1.118e-02       5.493e-01      -8.133e-07           0.000           0.000           1.000       2.778e-04         -0.1068
 415       2.615e-03       5.493e-01      -4.842e-07           0.000           0.000           1.000       9.442e-05         -0.2610
Strip 33
 416       2.391e-01       5.745e-01       3.006e-09           0.000           0.000           1.000       8.101e-05         -0.0016
 417       2.339e-01       5.745e-01       5.410e-09          -0.000           0.000           1.000       2.383e-04         -0.0028
 418       2.221e-01       5.745e-01      -3.730e-09           0.000           0.000           1.000       3.818e-04         -0.0043
 419       2.044e-01       5.745e-01       2.181e-08          -0.000           0.000           1.000       5.030e-04         -0.0059
 420       1.818e-01       5.745e-01       3.641e-08           0.000           0.000           1.000       5.951e-04         -0.0078
 421       1.555e-01       5.745e-01       3.446e-07           0.000           0.000           1.000       6.525e-04         -0.0101
 422       1.272e-01       5.745e-01       9.930e-07           0.000           0.000           1.000       6.721e-04         -0.0131
 423       9.851e-02       5.745e-01      -1.336e-08          -0.000           0.000           1.000       6.525e-04         -0.0188
 424       7.104e-02       5.745e-01      -1.739e-06           0.000           0.000           1.000       5.951e-04         -0.0240
 425       4.642e-02       5.745e-01       2.241e-06          -0.000           0.000           1.000       5.030e-04         -0.0361
 426       2.607e-02       5.745e-01      -2.672e-07          -0.000           0.000           1.000       3.818e-04         -0.0557
 427       1.118e-02       5.745e-01      -8.133e-07           0.000           0.000           1.000       2.383e-04         -0.0978
 428       2.615e-03       5.745e-01      -4.842e-07           0.000           0.000           1.000       8.101e-05         -0.2406
Strip 34
 429       2.391e-01       5.957e-01       3.006e-09           0.000           0.000           1.000       6.705e-05         -0.0013
 430       2.339e-01       5.957e-01       5.410e-09          -0.000           0.000           1.000       1.972e-04         -0.0024
 431       2.221e-01       5.957e-01      -3.730e-09           0.000           0.000           1.000       3.160e-04         -0.0036
 432       2.044e-01       5.957e-01       2.181e-08          -0.000           0.000           1.000       4.164e-04         -0.0049
 433       1.818e-01       5.957e-01       3.641e-08           0.000           0.000           1.000       4.925e-04         -0.0065
 434       1.555e-01       5.957e-01       3.446e-07           0.000           0.000           1.000       5.401e-04         -0.0083
 435       1.272e-01       5.957e-01       9.930e-07           0.000           0.000           1.000       5.562e-04         -0.0107
 436       9.851e-02       5.957e-01      -1.336e-08          -0.000           0.000           1.000       5.401e-04         -0.0157
 437       7.104e-02       5.957e-01      -1.739e-06           0.000           0.000           1.000       4.925e-04         -0.0198
 438       4.642e-02       5.957e-01       2.241e-06          -0.000           0.000           1.000       4.164e-04         -0.0306
 439       2.607e-02       5.957e-01      -2.672e-07          -0.000           0.000           1.000       3.160e-04         -0.0486
 440       1.118e-02       5.957e-01      -8.133e-07           0.000           0.000           1.000       1.972e-04         -0.0875
 441       2.615e-03       5.957e-01      -4.842e-07           0.000           0.000           1.000       6.705e-05         -0.2174
Strip 35
 442       2.391e-01       6.129e-01       3.006e-09           0.000           0.000           1.000       5.263e-05         -0.0011
 443       2.339e-01       6.129e-01       5.410e-09          -0.000           0.000           1.000       1.548e-04         -0.0019
 444       2.221e-01       6.129e-01      -3.730e-09           0.000           0.000           1.000       2.480e-04         -0.0029
 445       2.044e-01       6.129e-01       2.181e-08          -0.000           0.000           1.000       3.268e-04         -0.0039
 446       1.818e-01       6.129e-01       3.641e-08           0.000           0.000           1.000       3.866e-04         -0.0051
 447       1.555e-01       6.129e-01       3.446e-07           0.000           0.000           1.000       4.239e-04         -0.0065
 448       1.272e-01       6.129e-01       9.930e-07           0.000           0.000           1.000       4.366e-04         -0.0084
 449       9.851e-02       6.129e-01      -1.336e-08          -0.000           0.000           1.000       4.239e-04         -0.0125
 450       7.104e-02       6.129e-01      -1.739e-06           0.000           0.000           1.000       3.866e-04         -0.0155
 451       4.642e-02       6.129e-01       2.241e-06          -0.000           0.000           1.000       3.268e-04         -0.0245
 452       2.607e-02       6.129e-01      -2.672e-07          -0.000           0.000           1.000       2.480e-04         -0.0402
 453       1.118e-02       6.129e-01      -8.133e-07           0.000           0.000           1.000       1.548e-04         -0.0754
 454       2.615e-03       6.129e-01      -4.842e-07           0.000           0.000           1.000       5.263e-05         -0.1910
Strip 36
 455       2.391e-01       6.258e-01       3.006e-09           0.000           0.000           1.000       3.785e-05         -0.0008
 456       2.339e-01       6.258e-01       5.410e-09          -0.000           0.000           1.000       1.114e-04         -0.0015
 457       2.221e-01       6.258e-01      -3.730e-09           0.000           0.000           1.000       1.784e-04         -0.0022
 458       2.044e-01       6.258e-01       2.181e-08          -0.000           0.000           1.000       2.351e-04         -0.0030
 459       1.818e-01       6.258e-01       3.641e-08           0.000           0.000           1.000       2.781e-04         -0.0039
 460       1.555e-01       6.258e-01       3.446e-07           0.000           0.000           1.000       3.049e-04         -0.0048
 461       1.272e-01       6.258e-01       9.930e-07           0.000           0.000           1.000       3.140e-04         -0.0062
 462       9.851e-02       6.258e-01      -1.336e-08          -0.000           0.000           1.000       3.049e-04         -0.0094
 463       7.104e-02       6.258e-01      -1.739e-06           0.000           0.000           1.000       2.781e-04         -0.0112
 464       4.642e-02       6.258e-01       2.241e-06          -0.000           0.000           1.000       2.351e-04         -0.0181
 465       2.607e-02       6.258e-01      -2.672e-07          -0.000          -0.000           1.000       1.784e-04         -0.0305
 466       1.118e-02       6.258e-01      -8.133e-07           0.000          -0.000           1.000       1.114e-04         -0.0608
 467       2.615e-03       6.258e-01      -4.842e-07           0.000           0.000           1.000       3.785e-05         -0.1605
Strip 37
 468       2.391e-01       6.345e-01       3.006e-09           0.000           0.000           1.000       2.281e-05         -0.0006
 469       2.339e-01       6.345e-01       5.410e-09          -0.000           0.000           1.000       6.712e-05         -0.0011
 470       2.221e-01       6.345e-01      -3.730e-09           0.000           0.000           1.000       1.075e-04         -0.0015
 471       2.044e-01       6.345e-01       2.181e-08          -0.000           0.000           1.000       1.417e-04         -0.0020
 472       1.818e-01       6.345e-01       3.641e-08           0.000           0.000           1.000       1.676e-04         -0.0026
 473       1.555e-01       6.345e-01       3.446e-07           0.000           0.000           1.000       1.838e-04         -0.0033
 474       1.272e-01       6.345e-01       9.930e-07           0.000           0.000           1.000       1.893e-04         -0.0041
 475       9.851e-02       6.345e-01      -1.336e-08          -0.000           0.000           1.000       1.838e-04         -0.0064
 476       7.104e-02       6.345e-01      -1.739e-06           0.000           0.000           1.000       1.676e-04         -0.0074
 477       4.642e-02       6.345e-01       2.241e-06          -0.000           0.000           1.000       1.417e-04         -0.0120
 478       2.607e-02       6.345e-01      -2.672e-07          -0.000           0.000           1.000       1.075e-04         -0.0202
 479       1.118e-02       6.345e-01      -8.133e-07           0.000           0.000           1.000       6.712e-05         -0.0427
 480       2.615e-03       6.345e-01      -4.842e-07           0.000           0.000           1.000       2.281e-05         -0.1248
Strip 38
 481       2.391e-01       6.389e-01       3.006e-09           0.000           0.000           1.000       7.622e-06         -0.0004
 482       2.339e-01       6.389e-01       5.410e-09          -0.000           0.000           1.000       2.242e-05         -0.0006
 483       2.221e-01       6.389e-01      -3.730e-09           0.000           0.000           1.000       3.592e-05         -0.0009
 484       2.044e-01       6.389e-01       2.181e-08          -0.000           0.000           1.000       4.733e-05         -0.0012
 485       1.818e-01       6.389e-01       3.641e-08           0.000           0.000           1.000       5.599e-05         -0.0015
 486       1.555e-01       6.389e-01       3.446e-07           0.000           0.000           1.000       6.140e-05         -0.0019
 487       1.272e-01       6.389e-01       9.930e-07           0.000           0.000           1.000       6.324e-05         -0.0024
 488       9.851e-02       6.389e-01      -1.336e-08          -0.000           0.000           1.000       6.140e-05         -0.0037
 489       7.104e-02       6.389e-01      -1.739e-06           0.000           0.000           1.000       5.599e-05         -0.0042
 490       4.642e-02       6.389e-01       2.241e-06          -0.000           0.000           1.000       4.733e-05         -0.0068
 491       2.607e-02       6.389e-01      -2.672e-07          -0.000           0.000           1.000       3.592e-05         -0.0113
 492       1.118e-02       6.389e-01      -8.133e-07           0.000           0.000           1.000       2.242e-05         -0.0236
 493       2.615e-03       6.389e-01      -4.842e-07           0.000           0.000           1.000       7.622e-06         -0.0805










