xflr5 v6.50

Plane Name
T1-44.0 m/s-VLM1
QInf  =   44.000000 m/s
Alpha =   -1.500000
Beta  =    0.000°
Phi   =    0.000°
Ctrl  =    0.000
CL    =   -0.107686
Cy    =    0.000000
Cd    =    0.007608     ICd   =    0.000681     PCd   =    0.006927
Cl   = -1.52511e-18
Cm   =   0.0256586
ICn   =    0.000000     PCn   =    0.000000 
XCP   =    0.057104     YCP   =    0.000000     ZCP   =   -0.000000  
XNP   =    0.000000
Bending =   -5.068841

Main Wing
  y-span        Chord      Ai         Cl        PCd          ICd        CmGeom    CmAirf@chord/4    XTrtop    XTrBot      XCP       BM
   -0.6389     0.2400     0.597   -0.015956    0.006900    0.000166    0.003014   -0.001021     0.6711    0.6641    0.1860    0.0000
   -0.6345     0.2400     0.590   -0.027455    0.006907    0.000283    0.005217   -0.001692     0.6735    0.6616    0.1884   -0.0000
   -0.6258     0.2400     0.578   -0.039470    0.006915    0.000398    0.007675   -0.002238     0.6760    0.6591    0.1933   -0.0006
   -0.6129     0.2400     0.562   -0.051089    0.006922    0.000501    0.010246   -0.002571     0.6785    0.6566    0.1997   -0.0029
   -0.5957     0.2400     0.543   -0.062050    0.006925    0.000588    0.012863   -0.002695     0.6809    0.6543    0.2066   -0.0099
   -0.5745     0.2400     0.520   -0.072194    0.006925    0.000656    0.015450   -0.002644     0.6832    0.6523    0.2134   -0.0256
   -0.5493     0.2400     0.496   -0.081415    0.006924    0.000705    0.017930   -0.002469     0.6853    0.6505    0.2197   -0.0563
   -0.5204     0.2400     0.470   -0.089660    0.006924    0.000736    0.020238   -0.002223     0.6872    0.6489    0.2252   -0.1097
   -0.4880     0.2400     0.444   -0.096916    0.006923    0.000751    0.022324   -0.001950     0.6889    0.6475    0.2299   -0.1951
   -0.4522     0.2400     0.419   -0.103210    0.006923    0.000754    0.024165   -0.001683     0.6903    0.6462    0.2337   -0.3230
   -0.4133     0.2400     0.394   -0.108594    0.006923    0.000748    0.025754   -0.001440     0.6916    0.6452    0.2367   -0.5047
   -0.3716     0.2400     0.372   -0.113139    0.006923    0.000735    0.027099   -0.001231     0.6926    0.6443    0.2391   -0.7516
   -0.3273     0.2400     0.353   -0.116919    0.006925    0.000720    0.028218   -0.001057     0.6935    0.6435    0.2410   -1.0748
   -0.2808     0.2400     0.336   -0.120009    0.006927    0.000704    0.029129   -0.000918     0.6943    0.6429    0.2424   -1.4847
   -0.2324     0.2400     0.322   -0.122476    0.006929    0.000689    0.029855   -0.000809     0.6948    0.6424    0.2434   -1.9900
   -0.1825     0.2400     0.311   -0.124379    0.006931    0.000676    0.030413   -0.000727     0.6953    0.6420    0.2442   -2.5978
   -0.1312     0.2400     0.303   -0.125764    0.006932    0.000666    0.030818   -0.000669     0.6956    0.6417    0.2447   -3.3127
   -0.0791     0.2400     0.298   -0.126668    0.006932    0.000659    0.031081   -0.000632     0.6959    0.6415    0.2450   -4.1367
   -0.0264     0.2400     0.295   -0.127115    0.006933    0.000655    0.031211   -0.000613     0.6960    0.6414    0.2452   -5.0688
    0.0264     0.2400     0.295   -0.127115    0.006933    0.000655    0.031211   -0.000613     0.6960    0.6414    0.2452   -5.0688
    0.0791     0.2400     0.298   -0.126668    0.006932    0.000659    0.031081   -0.000632     0.6959    0.6415    0.2450   -4.1367
    0.1312     0.2400     0.303   -0.125764    0.006932    0.000666    0.030818   -0.000669     0.6956    0.6417    0.2447   -3.3127
    0.1825     0.2400     0.311   -0.124379    0.006931    0.000676    0.030413   -0.000727     0.6953    0.6420    0.2442   -2.5978
    0.2324     0.2400     0.322   -0.122476    0.006929    0.000689    0.029855   -0.000809     0.6948    0.6424    0.2434   -1.9900
    0.2808     0.2400     0.336   -0.120009    0.006927    0.000704    0.029129   -0.000918     0.6943    0.6429    0.2424   -1.4847
    0.3273     0.2400     0.353   -0.116919    0.006925    0.000720    0.028218   -0.001057     0.6935    0.6435    0.2410   -1.0748
    0.3716     0.2400     0.372   -0.113139    0.006923    0.000735    0.027099   -0.001231     0.6926    0.6443    0.2391   -0.7516
    0.4133     0.2400     0.394   -0.108594    0.006923    0.000748    0.025754   -0.001440     0.6916    0.6452    0.2367   -0.5047
    0.4522     0.2400     0.419   -0.103210    0.006923    0.000754    0.024165   -0.001683     0.6903    0.6462    0.2337   -0.3230
    0.4880     0.2400     0.444   -0.096916    0.006923    0.000751    0.022324   -0.001950     0.6889    0.6475    0.2299   -0.1951
    0.5204     0.2400     0.470   -0.089660    0.006924    0.000736    0.020238   -0.002223     0.6872    0.6489    0.2252   -0.1097
    0.5493     0.2400     0.496   -0.081415    0.006924    0.000705    0.017930   -0.002469     0.6853    0.6505    0.2197   -0.0563
    0.5745     0.2400     0.520   -0.072194    0.006925    0.000656    0.015450   -0.002644     0.6832    0.6523    0.2134   -0.0256
    0.5957     0.2400     0.543   -0.062050    0.006925    0.000588    0.012863   -0.002695     0.6809    0.6543    0.2066   -0.0099
    0.6129     0.2400     0.562   -0.051089    0.006922    0.000501    0.010246   -0.002571     0.6785    0.6566    0.1997   -0.0029
    0.6258     0.2400     0.578   -0.039470    0.006915    0.000398    0.007675   -0.002238     0.6760    0.6591    0.1933   -0.0006
    0.6345     0.2400     0.590   -0.027455    0.006907    0.000283    0.005217   -0.001692     0.6735    0.6616    0.1884   -0.0000
    0.6389     0.2400     0.597   -0.015956    0.006900    0.000166    0.003014   -0.001021     0.6711    0.6641    0.1860    0.0000


Main Wing Cp Coefficients
 Panel     CtrlPt.x        CtrlPt.y        CtrlPt.z       Nx      Ny       Nz        Area       Cp
Main WingCp Coefficients
Strip 1
   0       2.391e-01      -6.389e-01       3.006e-09           0.000           0.000           1.000       7.622e-06         -0.0012
   1       2.339e-01      -6.389e-01       5.410e-09          -0.000           0.000           1.000       2.242e-05         -0.0019
   2       2.221e-01      -6.389e-01      -3.730e-09           0.000           0.000           1.000       3.592e-05         -0.0026
   3       2.044e-01      -6.389e-01       2.181e-08          -0.000           0.000           1.000       4.733e-05         -0.0035
   4       1.818e-01      -6.389e-01       3.641e-08           0.000           0.000           1.000       5.599e-05         -0.0045
   5       1.555e-01      -6.389e-01       3.446e-07           0.000           0.000           1.000       6.140e-05         -0.0057
   6       1.272e-01      -6.389e-01       9.930e-07           0.000           0.000           1.000       6.324e-05         -0.0074
   7       9.851e-02      -6.389e-01      -1.336e-08          -0.000           0.000           1.000       6.140e-05         -0.0103
   8       7.104e-02      -6.389e-01      -1.739e-06           0.000           0.000           1.000       5.599e-05         -0.0134
   9       4.642e-02      -6.389e-01       2.241e-06          -0.000           0.000           1.000       4.733e-05         -0.0204
  10       2.607e-02      -6.389e-01      -2.672e-07          -0.000           0.000           1.000       3.592e-05         -0.0337
  11       1.118e-02      -6.389e-01      -8.133e-07           0.000           0.000           1.000       2.242e-05         -0.0704
  12       2.615e-03      -6.389e-01      -4.842e-07           0.000           0.000           1.000       7.622e-06         -0.2424
Strip 2
  13       2.391e-01      -6.345e-01       3.006e-09           0.000           0.000           1.000       2.281e-05         -0.0019
  14       2.339e-01      -6.345e-01       5.410e-09          -0.000           0.000           1.000       6.712e-05         -0.0032
  15       2.221e-01      -6.345e-01      -3.730e-09           0.000           0.000           1.000       1.075e-04         -0.0045
  16       2.044e-01      -6.345e-01       2.181e-08          -0.000           0.000           1.000       1.417e-04         -0.0060
  17       1.818e-01      -6.345e-01       3.641e-08           0.000           0.000           1.000       1.676e-04         -0.0078
  18       1.555e-01      -6.345e-01       3.446e-07           0.000           0.000           1.000       1.838e-04         -0.0100
  19       1.272e-01      -6.345e-01       9.930e-07           0.000           0.000           1.000       1.893e-04         -0.0128
  20       9.851e-02      -6.345e-01      -1.336e-08          -0.000           0.000           1.000       1.838e-04         -0.0180
  21       7.104e-02      -6.345e-01      -1.739e-06           0.000           0.000           1.000       1.676e-04         -0.0235
  22       4.642e-02      -6.345e-01       2.241e-06          -0.000           0.000           1.000       1.417e-04         -0.0359
  23       2.607e-02      -6.345e-01      -2.672e-07          -0.000           0.000           1.000       1.075e-04         -0.0602
  24       1.118e-02      -6.345e-01      -8.133e-07           0.000           0.000           1.000       6.712e-05         -0.1278
  25       2.615e-03      -6.345e-01      -4.842e-07           0.000           0.000           1.000       2.281e-05         -0.3756
Strip 3
  26       2.391e-01      -6.258e-01       3.006e-09           0.000           0.000           1.000       3.785e-05         -0.0026
  27       2.339e-01      -6.258e-01       5.410e-09          -0.000           0.000           1.000       1.114e-04         -0.0045
  28       2.221e-01      -6.258e-01      -3.730e-09           0.000           0.000           1.000       1.784e-04         -0.0065
  29       2.044e-01      -6.258e-01       2.181e-08          -0.000           0.000           1.000       2.351e-04         -0.0088
  30       1.818e-01      -6.258e-01       3.641e-08           0.000           0.000           1.000       2.781e-04         -0.0115
  31       1.555e-01      -6.258e-01       3.446e-07           0.000           0.000           1.000       3.049e-04         -0.0147
  32       1.272e-01      -6.258e-01       9.930e-07           0.000           0.000           1.000       3.140e-04         -0.0190
  33       9.851e-02      -6.258e-01      -1.336e-08          -0.000           0.000           1.000       3.049e-04         -0.0266
  34       7.104e-02      -6.258e-01      -1.739e-06           0.000           0.000           1.000       2.781e-04         -0.0352
  35       4.642e-02      -6.258e-01       2.241e-06          -0.000           0.000           1.000       2.351e-04         -0.0540
  36       2.607e-02      -6.258e-01      -2.672e-07          -0.000           0.000           1.000       1.784e-04         -0.0910
  37       1.118e-02      -6.258e-01      -8.133e-07           0.000           0.000           1.000       1.114e-04         -0.1819
  38       2.615e-03      -6.258e-01      -4.842e-07           0.000           0.000           1.000       3.785e-05         -0.4829
Strip 4
  39       2.391e-01      -6.129e-01       3.006e-09           0.000           0.000           1.000       5.263e-05         -0.0033
  40       2.339e-01      -6.129e-01       5.410e-09          -0.000           0.000           1.000       1.548e-04         -0.0058
  41       2.221e-01      -6.129e-01      -3.730e-09           0.000          -0.000           1.000       2.480e-04         -0.0086
  42       2.044e-01      -6.129e-01       2.181e-08          -0.000           0.000           1.000       3.268e-04         -0.0117
  43       1.818e-01      -6.129e-01       3.641e-08           0.000          -0.000           1.000       3.866e-04         -0.0153
  44       1.555e-01      -6.129e-01       3.446e-07           0.000           0.000           1.000       4.239e-04         -0.0197
  45       1.272e-01      -6.129e-01       9.930e-07           0.000           0.000           1.000       4.366e-04         -0.0257
  46       9.851e-02      -6.129e-01      -1.336e-08          -0.000           0.000           1.000       4.239e-04         -0.0357
  47       7.104e-02      -6.129e-01      -1.739e-06           0.000           0.000           1.000       3.866e-04         -0.0480
  48       4.642e-02      -6.129e-01       2.241e-06          -0.000           0.000           1.000       3.268e-04         -0.0732
  49       2.607e-02      -6.129e-01      -2.672e-07          -0.000           0.000           1.000       2.480e-04         -0.1201
  50       1.118e-02      -6.129e-01      -8.133e-07           0.000           0.000           1.000       1.548e-04         -0.2255
  51       2.615e-03      -6.129e-01      -4.842e-07           0.000           0.000           1.000       5.263e-05         -0.5742
Strip 5
  52       2.391e-01      -5.957e-01       3.006e-09           0.000           0.000           1.000       6.705e-05         -0.0040
  53       2.339e-01      -5.957e-01       5.410e-09          -0.000           0.000           1.000       1.972e-04         -0.0071
  54       2.221e-01      -5.957e-01      -3.730e-09           0.000           0.000           1.000       3.160e-04         -0.0107
  55       2.044e-01      -5.957e-01       2.181e-08          -0.000           0.000           1.000       4.164e-04         -0.0146
  56       1.818e-01      -5.957e-01       3.641e-08           0.000          -0.000           1.000       4.925e-04         -0.0193
  57       1.555e-01      -5.957e-01       3.446e-07           0.000           0.000           1.000       5.401e-04         -0.0250
  58       1.272e-01      -5.957e-01       9.930e-07           0.000          -0.000           1.000       5.562e-04         -0.0327
  59       9.851e-02      -5.957e-01      -1.336e-08          -0.000           0.000           1.000       5.401e-04         -0.0452
  60       7.104e-02      -5.957e-01      -1.739e-06           0.000           0.000           1.000       4.925e-04         -0.0611
  61       4.642e-02      -5.957e-01       2.241e-06          -0.000           0.000           1.000       4.164e-04         -0.0916
  62       2.607e-02      -5.957e-01      -2.672e-07          -0.000           0.000           1.000       3.160e-04         -0.1453
  63       1.118e-02      -5.957e-01      -8.133e-07           0.000           0.000           1.000       1.972e-04         -0.2619
  64       2.615e-03      -5.957e-01      -4.842e-07           0.000           0.000           1.000       6.705e-05         -0.6535
Strip 6
  65       2.391e-01      -5.745e-01       3.006e-09           0.000           0.000           1.000       8.101e-05         -0.0048
  66       2.339e-01      -5.745e-01       5.410e-09          -0.000           0.000           1.000       2.383e-04         -0.0085
  67       2.221e-01      -5.745e-01      -3.730e-09           0.000           0.000           1.000       3.818e-04         -0.0128
  68       2.044e-01      -5.745e-01       2.181e-08          -0.000           0.000           1.000       5.030e-04         -0.0177
  69       1.818e-01      -5.745e-01       3.641e-08           0.000           0.000           1.000       5.951e-04         -0.0234
  70       1.555e-01      -5.745e-01       3.446e-07           0.000           0.000           1.000       6.525e-04         -0.0304
  71       1.272e-01      -5.745e-01       9.930e-07           0.000           0.000           1.000       6.721e-04         -0.0399
  72       9.851e-02      -5.745e-01      -1.336e-08          -0.000           0.000           1.000       6.525e-04         -0.0547
  73       7.104e-02      -5.745e-01      -1.739e-06           0.000           0.000           1.000       5.951e-04         -0.0737
  74       4.642e-02      -5.745e-01       2.241e-06          -0.000           0.000           1.000       5.030e-04         -0.1079
  75       2.607e-02      -5.745e-01      -2.672e-07          -0.000           0.000           1.000       3.818e-04         -0.1665
  76       1.118e-02      -5.745e-01      -8.133e-07           0.000           0.000           1.000       2.383e-04         -0.2929
  77       2.615e-03      -5.745e-01      -4.842e-07           0.000           0.000           1.000       8.101e-05         -0.7230
Strip 7
  78       2.391e-01      -5.493e-01       3.006e-09           0.000           0.000           1.000       9.442e-05         -0.0056
  79       2.339e-01      -5.493e-01       5.410e-09          -0.000           0.000           1.000       2.778e-04         -0.0099
  80       2.221e-01      -5.493e-01      -3.730e-09           0.000          -0.000           1.000       4.450e-04         -0.0150
  81       2.044e-01      -5.493e-01       2.181e-08          -0.000           0.000           1.000       5.863e-04         -0.0207
  82       1.818e-01      -5.493e-01       3.641e-08           0.000           0.000           1.000       6.936e-04         -0.0275
  83       1.555e-01      -5.493e-01       3.446e-07           0.000           0.000           1.000       7.605e-04         -0.0358
  84       1.272e-01      -5.493e-01       9.930e-07           0.000          -0.000           1.000       7.833e-04         -0.0469
  85       9.851e-02      -5.493e-01      -1.336e-08          -0.000           0.000           1.000       7.605e-04         -0.0637
  86       7.104e-02      -5.493e-01      -1.739e-06           0.000           0.000           1.000       6.936e-04         -0.0851
  87       4.642e-02      -5.493e-01       2.241e-06          -0.000           0.000           1.000       5.863e-04         -0.1221
  88       2.607e-02      -5.493e-01      -2.672e-07          -0.000           0.000           1.000       4.450e-04         -0.1845
  89       1.118e-02      -5.493e-01      -8.133e-07           0.000           0.000           1.000       2.778e-04         -0.3197
  90       2.615e-03      -5.493e-01      -4.842e-07           0.000           0.000           1.000       9.442e-05         -0.7840
Strip 8
  91       2.391e-01      -5.204e-01       3.006e-09           0.000           0.000           1.000       1.072e-04         -0.0064
  92       2.339e-01      -5.204e-01       5.410e-09          -0.000           0.000           1.000       3.153e-04         -0.0113
  93       2.221e-01      -5.204e-01      -3.730e-09           0.000           0.000           1.000       5.051e-04         -0.0171
  94       2.044e-01      -5.204e-01       2.181e-08          -0.000          -0.000           1.000       6.656e-04         -0.0237
  95       1.818e-01      -5.204e-01       3.641e-08           0.000           0.000           1.000       7.873e-04         -0.0315
  96       1.555e-01      -5.204e-01       3.446e-07           0.000           0.000           1.000       8.633e-04         -0.0410
  97       1.272e-01      -5.204e-01       9.930e-07           0.000           0.000           1.000       8.892e-04         -0.0534
  98       9.851e-02      -5.204e-01      -1.336e-08          -0.000          -0.000           1.000       8.633e-04         -0.0718
  99       7.104e-02      -5.204e-01      -1.739e-06           0.000           0.000           1.000       7.873e-04         -0.0950
 100       4.642e-02      -5.204e-01       2.241e-06          -0.000          -0.000           1.000       6.656e-04         -0.1342
 101       2.607e-02      -5.204e-01      -2.672e-07          -0.000           0.000           1.000       5.051e-04         -0.1999
 102       1.118e-02      -5.204e-01      -8.133e-07           0.000           0.000           1.000       3.153e-04         -0.3430
 103       2.615e-03      -5.204e-01      -4.842e-07           0.000           0.000           1.000       1.072e-04         -0.8376
Strip 9
 104       2.391e-01      -4.880e-01       3.006e-09           0.000           0.000           1.000       1.192e-04         -0.0071
 105       2.339e-01      -4.880e-01       5.410e-09          -0.000           0.000           1.000       3.507e-04         -0.0127
 106       2.221e-01      -4.880e-01      -3.730e-09           0.000           0.000           1.000       5.618e-04         -0.0192
 107       2.044e-01      -4.880e-01       2.181e-08          -0.000           0.000           1.000       7.403e-04         -0.0266
 108       1.818e-01      -4.880e-01       3.641e-08           0.000          -0.000           1.000       8.757e-04         -0.0352
 109       1.555e-01      -4.880e-01       3.446e-07           0.000          -0.000           1.000       9.602e-04         -0.0457
 110       1.272e-01      -4.880e-01       9.930e-07           0.000           0.000           1.000       9.890e-04         -0.0593
 111       9.851e-02      -4.880e-01      -1.336e-08          -0.000          -0.000           1.000       9.602e-04         -0.0790
 112       7.104e-02      -4.880e-01      -1.739e-06           0.000           0.000           1.000       8.757e-04         -0.1035
 113       4.642e-02      -4.880e-01       2.241e-06          -0.000          -0.000           1.000       7.403e-04         -0.1445
 114       2.607e-02      -4.880e-01      -2.672e-07          -0.000          -0.000           1.000       5.618e-04         -0.2131
 115       1.118e-02      -4.880e-01      -8.133e-07           0.000          -0.000           1.000       3.507e-04         -0.3632
 116       2.615e-03      -4.880e-01      -4.842e-07           0.000           0.000           1.000       1.192e-04         -0.8843
Strip 10
 117       2.391e-01      -4.522e-01       3.006e-09           0.000           0.000           1.000       1.304e-04         -0.0078
 118       2.339e-01      -4.522e-01       5.410e-09          -0.000           0.000           1.000       3.837e-04         -0.0140
 119       2.221e-01      -4.522e-01      -3.730e-09           0.000          -0.000           1.000       6.147e-04         -0.0211
 120       2.044e-01      -4.522e-01       2.181e-08          -0.000          -0.000           1.000       8.099e-04         -0.0292
 121       1.818e-01      -4.522e-01       3.641e-08           0.000           0.000           1.000       9.581e-04         -0.0386
 122       1.555e-01      -4.522e-01       3.446e-07           0.000           0.000           1.000       1.051e-03         -0.0500
 123       1.272e-01      -4.522e-01       9.930e-07           0.000           0.000           1.000       1.082e-03         -0.0644
 124       9.851e-02      -4.522e-01      -1.336e-08          -0.000           0.000           1.000       1.051e-03         -0.0851
 125       7.104e-02      -4.522e-01      -1.739e-06           0.000           0.000           1.000       9.581e-04         -0.1108
 126       4.642e-02      -4.522e-01       2.241e-06          -0.000           0.000           1.000       8.099e-04         -0.1532
 127       2.607e-02      -4.522e-01      -2.672e-07          -0.000           0.000           1.000       6.147e-04         -0.2244
 128       1.118e-02      -4.522e-01      -8.133e-07           0.000          -0.000           1.000       3.837e-04         -0.3806
 129       2.615e-03      -4.522e-01      -4.842e-07           0.000           0.000           1.000       1.304e-04         -0.9249
Strip 11
 130       2.391e-01      -4.133e-01       3.006e-09           0.000           0.000           1.000       1.407e-04         -0.0085
 131       2.339e-01      -4.133e-01       5.410e-09          -0.000           0.000           1.000       4.141e-04         -0.0151
 132       2.221e-01      -4.133e-01      -3.730e-09           0.000          -0.000           1.000       6.633e-04         -0.0228
 133       2.044e-01      -4.133e-01       2.181e-08          -0.000           0.000           1.000       8.740e-04         -0.0315
 134       1.818e-01      -4.133e-01       3.641e-08           0.000           0.000           1.000       1.034e-03         -0.0416
 135       1.555e-01      -4.133e-01       3.446e-07           0.000           0.000           1.000       1.134e-03         -0.0536
 136       1.272e-01      -4.133e-01       9.930e-07           0.000           0.000           1.000       1.168e-03         -0.0688
 137       9.851e-02      -4.133e-01      -1.336e-08          -0.000           0.000           1.000       1.134e-03         -0.0903
 138       7.104e-02      -4.133e-01      -1.739e-06           0.000           0.000           1.000       1.034e-03         -0.1169
 139       4.642e-02      -4.133e-01       2.241e-06          -0.000           0.000           1.000       8.740e-04         -0.1606
 140       2.607e-02      -4.133e-01      -2.672e-07          -0.000           0.000           1.000       6.633e-04         -0.2340
 141       1.118e-02      -4.133e-01      -8.133e-07           0.000           0.000           1.000       4.141e-04         -0.3956
 142       2.615e-03      -4.133e-01      -4.842e-07           0.000           0.000           1.000       1.407e-04         -0.9597
Strip 12
 143       2.391e-01      -3.716e-01       3.006e-09           0.000           0.000           1.000       1.501e-04         -0.0090
 144       2.339e-01      -3.716e-01       5.410e-09          -0.000           0.000           1.000       4.416e-04         -0.0161
 145       2.221e-01      -3.716e-01      -3.730e-09           0.000           0.000           1.000       7.074e-04         -0.0243
 146       2.044e-01      -3.716e-01       2.181e-08          -0.000          -0.000           1.000       9.322e-04         -0.0335
 147       1.818e-01      -3.716e-01       3.641e-08           0.000           0.000           1.000       1.103e-03         -0.0441
 148       1.555e-01      -3.716e-01       3.446e-07           0.000           0.000           1.000       1.209e-03         -0.0567
 149       1.272e-01      -3.716e-01       9.930e-07           0.000          -0.000           1.000       1.245e-03         -0.0725
 150       9.851e-02      -3.716e-01      -1.336e-08          -0.000           0.000           1.000       1.209e-03         -0.0947
 151       7.104e-02      -3.716e-01      -1.739e-06           0.000           0.000           1.000       1.103e-03         -0.1220
 152       4.642e-02      -3.716e-01       2.241e-06          -0.000          -0.000           1.000       9.322e-04         -0.1667
 153       2.607e-02      -3.716e-01      -2.672e-07          -0.000          -0.000           1.000       7.074e-04         -0.2421
 154       1.118e-02      -3.716e-01      -8.133e-07           0.000           0.000           1.000       4.416e-04         -0.4082
 155       2.615e-03      -3.716e-01      -4.842e-07           0.000           0.000           1.000       1.501e-04         -0.9894
Strip 13
 156       2.391e-01      -3.273e-01       3.006e-09           0.000           0.000           1.000       1.585e-04         -0.0095
 157       2.339e-01      -3.273e-01       5.410e-09          -0.000           0.000           1.000       4.661e-04         -0.0169
 158       2.221e-01      -3.273e-01      -3.730e-09           0.000           0.000           1.000       7.467e-04         -0.0255
 159       2.044e-01      -3.273e-01       2.181e-08          -0.000           0.000           1.000       9.839e-04         -0.0351
 160       1.818e-01      -3.273e-01       3.641e-08           0.000           0.000           1.000       1.164e-03         -0.0462
 161       1.555e-01      -3.273e-01       3.446e-07           0.000           0.000           1.000       1.276e-03         -0.0593
 162       1.272e-01      -3.273e-01       9.930e-07           0.000           0.000           1.000       1.315e-03         -0.0756
 163       9.851e-02      -3.273e-01      -1.336e-08          -0.000           0.000           1.000       1.276e-03         -0.0983
 164       7.104e-02      -3.273e-01      -1.739e-06           0.000           0.000           1.000       1.164e-03         -0.1262
 165       4.642e-02      -3.273e-01       2.241e-06          -0.000           0.000           1.000       9.839e-04         -0.1719
 166       2.607e-02      -3.273e-01      -2.672e-07          -0.000           0.000           1.000       7.467e-04         -0.2489
 167       1.118e-02      -3.273e-01      -8.133e-07           0.000           0.000           1.000       4.661e-04         -0.4188
 168       2.615e-03      -3.273e-01      -4.842e-07           0.000           0.000           1.000       1.585e-04         -1.0144
Strip 14
 169       2.391e-01      -2.808e-01       3.006e-09           0.000           0.000           1.000       1.657e-04         -0.0099
 170       2.339e-01      -2.808e-01       5.410e-09          -0.000           0.000           1.000       4.875e-04         -0.0176
 171       2.221e-01      -2.808e-01      -3.730e-09           0.000          -0.000           1.000       7.809e-04         -0.0265
 172       2.044e-01      -2.808e-01       2.181e-08          -0.000           0.000           1.000       1.029e-03         -0.0365
 173       1.818e-01      -2.808e-01       3.641e-08           0.000           0.000           1.000       1.217e-03         -0.0479
 174       1.555e-01      -2.808e-01       3.446e-07           0.000           0.000           1.000       1.335e-03         -0.0614
 175       1.272e-01      -2.808e-01       9.930e-07           0.000          -0.000           1.000       1.375e-03         -0.0781
 176       9.851e-02      -2.808e-01      -1.336e-08          -0.000           0.000           1.000       1.335e-03         -0.1012
 177       7.104e-02      -2.808e-01      -1.739e-06           0.000           0.000           1.000       1.217e-03         -0.1297
 178       4.642e-02      -2.808e-01       2.241e-06          -0.000           0.000           1.000       1.029e-03         -0.1760
 179       2.607e-02      -2.808e-01      -2.672e-07          -0.000           0.000           1.000       7.809e-04         -0.2544
 180       1.118e-02      -2.808e-01      -8.133e-07           0.000           0.000           1.000       4.875e-04         -0.4276
 181       2.615e-03      -2.808e-01      -4.842e-07           0.000           0.000           1.000       1.657e-04         -1.0350
Strip 15
 182       2.391e-01      -2.324e-01       3.006e-09           0.000           0.000           1.000       1.718e-04         -0.0102
 183       2.339e-01      -2.324e-01       5.410e-09          -0.000           0.000           1.000       5.055e-04         -0.0181
 184       2.221e-01      -2.324e-01      -3.730e-09           0.000           0.000           1.000       8.098e-04         -0.0273
 185       2.044e-01      -2.324e-01       2.181e-08          -0.000          -0.000           1.000       1.067e-03         -0.0376
 186       1.818e-01      -2.324e-01       3.641e-08           0.000           0.000           1.000       1.262e-03         -0.0493
 187       1.555e-01      -2.324e-01       3.446e-07           0.000           0.000           1.000       1.384e-03         -0.0630
 188       1.272e-01      -2.324e-01       9.930e-07           0.000           0.000           1.000       1.426e-03         -0.0800
 189       9.851e-02      -2.324e-01      -1.336e-08          -0.000          -0.000           1.000       1.384e-03         -0.1035
 190       7.104e-02      -2.324e-01      -1.739e-06           0.000           0.000           1.000       1.262e-03         -0.1324
 191       4.642e-02      -2.324e-01       2.241e-06          -0.000           0.000           1.000       1.067e-03         -0.1794
 192       2.607e-02      -2.324e-01      -2.672e-07          -0.000           0.000           1.000       8.098e-04         -0.2588
 193       1.118e-02      -2.324e-01      -8.133e-07           0.000          -0.000           1.000       5.055e-04         -0.4346
 194       2.615e-03      -2.324e-01      -4.842e-07           0.000           0.000           1.000       1.718e-04         -1.0516
Strip 16
 195       2.391e-01      -1.825e-01       3.006e-09           0.000           0.000           1.000       1.768e-04         -0.0105
 196       2.339e-01      -1.825e-01       5.410e-09          -0.000           0.000           1.000       5.201e-04         -0.0186
 197       2.221e-01      -1.825e-01      -3.730e-09           0.000          -0.000           1.000       8.331e-04         -0.0279
 198       2.044e-01      -1.825e-01       2.181e-08          -0.000           0.000           1.000       1.098e-03         -0.0384
 199       1.818e-01      -1.825e-01       3.641e-08           0.000           0.000           1.000       1.299e-03         -0.0504
 200       1.555e-01      -1.825e-01       3.446e-07           0.000           0.000           1.000       1.424e-03         -0.0643
 201       1.272e-01      -1.825e-01       9.930e-07           0.000           0.000           1.000       1.467e-03         -0.0816
 202       9.851e-02      -1.825e-01      -1.336e-08          -0.000           0.000           1.000       1.424e-03         -0.1052
 203       7.104e-02      -1.825e-01      -1.739e-06           0.000           0.000           1.000       1.299e-03         -0.1345
 204       4.642e-02      -1.825e-01       2.241e-06          -0.000          -0.000           1.000       1.098e-03         -0.1820
 205       2.607e-02      -1.825e-01      -2.672e-07          -0.000           0.000           1.000       8.331e-04         -0.2623
 206       1.118e-02      -1.825e-01      -8.133e-07           0.000           0.000           1.000       5.201e-04         -0.4401
 207       2.615e-03      -1.825e-01      -4.842e-07           0.000           0.000           1.000       1.768e-04         -1.0645
Strip 17
 208       2.391e-01      -1.312e-01       3.006e-09           0.000           0.000           1.000       1.805e-04         -0.0106
 209       2.339e-01      -1.312e-01       5.410e-09          -0.000           0.000           1.000       5.311e-04         -0.0189
 210       2.221e-01      -1.312e-01      -3.730e-09           0.000           0.000           1.000       8.508e-04         -0.0284
 211       2.044e-01      -1.312e-01       2.181e-08          -0.000           0.000           1.000       1.121e-03         -0.0390
 212       1.818e-01      -1.312e-01       3.641e-08           0.000          -0.000           1.000       1.326e-03         -0.0511
 213       1.555e-01      -1.312e-01       3.446e-07           0.000           0.000           1.000       1.454e-03         -0.0652
 214       1.272e-01      -1.312e-01       9.930e-07           0.000           0.000           1.000       1.498e-03         -0.0826
 215       9.851e-02      -1.312e-01      -1.336e-08          -0.000           0.000           1.000       1.454e-03         -0.1065
 216       7.104e-02      -1.312e-01      -1.739e-06           0.000           0.000           1.000       1.326e-03         -0.1360
 217       4.642e-02      -1.312e-01       2.241e-06          -0.000           0.000           1.000       1.121e-03         -0.1838
 218       2.607e-02      -1.312e-01      -2.672e-07          -0.000          -0.000           1.000       8.508e-04         -0.2648
 219       1.118e-02      -1.312e-01      -8.133e-07           0.000          -0.000           1.000       5.311e-04         -0.4441
 220       2.615e-03      -1.312e-01      -4.842e-07           0.000           0.000           1.000       1.805e-04         -1.0740
Strip 18
 221       2.391e-01      -7.910e-02       3.006e-09           0.000           0.000           1.000       1.830e-04         -0.0107
 222       2.339e-01      -7.910e-02       5.410e-09          -0.000           0.000           1.000       5.385e-04         -0.0191
 223       2.221e-01      -7.910e-02      -3.730e-09           0.000           0.000           1.000       8.626e-04         -0.0287
 224       2.044e-01      -7.910e-02       2.181e-08          -0.000          -0.000           1.000       1.137e-03         -0.0394
 225       1.818e-01      -7.910e-02       3.641e-08           0.000           0.000           1.000       1.345e-03         -0.0516
 226       1.555e-01      -7.910e-02       3.446e-07           0.000           0.000           1.000       1.474e-03         -0.0658
 227       1.272e-01      -7.910e-02       9.930e-07           0.000          -0.000           1.000       1.518e-03         -0.0834
 228       9.851e-02      -7.910e-02      -1.336e-08          -0.000           0.000           1.000       1.474e-03         -0.1073
 229       7.104e-02      -7.910e-02      -1.739e-06           0.000           0.000           1.000       1.345e-03         -0.1370
 230       4.642e-02      -7.910e-02       2.241e-06          -0.000          -0.000           1.000       1.137e-03         -0.1851
 231       2.607e-02      -7.910e-02      -2.672e-07          -0.000          -0.000           1.000       8.626e-04         -0.2664
 232       1.118e-02      -7.910e-02      -8.133e-07           0.000           0.000           1.000       5.385e-04         -0.4467
 233       2.615e-03      -7.910e-02      -4.842e-07           0.000           0.000           1.000       1.830e-04         -1.0802
Strip 19
 234       2.391e-01      -2.643e-02       3.006e-09           0.000           0.000           1.000       1.843e-04         -0.0108
 235       2.339e-01      -2.643e-02       5.410e-09          -0.000           0.000           1.000       5.422e-04         -0.0192
 236       2.221e-01      -2.643e-02      -3.730e-09           0.000           0.000           1.000       8.685e-04         -0.0288
 237       2.044e-01      -2.643e-02       2.181e-08          -0.000           0.000           1.000       1.144e-03         -0.0396
 238       1.818e-01      -2.643e-02       3.641e-08           0.000           0.000           1.000       1.354e-03         -0.0519
 239       1.555e-01      -2.643e-02       3.446e-07           0.000           0.000           1.000       1.484e-03         -0.0661
 240       1.272e-01      -2.643e-02       9.930e-07           0.000           0.000           1.000       1.529e-03         -0.0837
 241       9.851e-02      -2.643e-02      -1.336e-08          -0.000          -0.000           1.000       1.484e-03         -0.1078
 242       7.104e-02      -2.643e-02      -1.739e-06           0.000           0.000           1.000       1.354e-03         -0.1375
 243       4.642e-02      -2.643e-02       2.241e-06          -0.000           0.000           1.000       1.144e-03         -0.1857
 244       2.607e-02      -2.643e-02      -2.672e-07          -0.000           0.000           1.000       8.685e-04         -0.2672
 245       1.118e-02      -2.643e-02      -8.133e-07           0.000           0.000           1.000       5.422e-04         -0.4480
 246       2.615e-03      -2.643e-02      -4.842e-07           0.000           0.000           1.000       1.843e-04         -1.0833
Strip 20
 247       2.391e-01       2.643e-02       3.006e-09           0.000           0.000           1.000       1.843e-04         -0.0108
 248       2.339e-01       2.643e-02       5.410e-09          -0.000           0.000           1.000       5.422e-04         -0.0192
 249       2.221e-01       2.643e-02      -3.730e-09           0.000           0.000           1.000       8.685e-04         -0.0288
 250       2.044e-01       2.643e-02       2.181e-08          -0.000          -0.000           1.000       1.144e-03         -0.0396
 251       1.818e-01       2.643e-02       3.641e-08           0.000           0.000           1.000       1.354e-03         -0.0519
 252       1.555e-01       2.643e-02       3.446e-07           0.000           0.000           1.000       1.484e-03         -0.0661
 253       1.272e-01       2.643e-02       9.930e-07           0.000           0.000           1.000       1.529e-03         -0.0837
 254       9.851e-02       2.643e-02      -1.336e-08          -0.000           0.000           1.000       1.484e-03         -0.1078
 255       7.104e-02       2.643e-02      -1.739e-06           0.000           0.000           1.000       1.354e-03         -0.1375
 256       4.642e-02       2.643e-02       2.241e-06          -0.000           0.000           1.000       1.144e-03         -0.1857
 257       2.607e-02       2.643e-02      -2.672e-07          -0.000           0.000           1.000       8.685e-04         -0.2672
 258       1.118e-02       2.643e-02      -8.133e-07           0.000           0.000           1.000       5.422e-04         -0.4480
 259       2.615e-03       2.643e-02      -4.842e-07           0.000           0.000           1.000       1.843e-04         -1.0833
Strip 21
 260       2.391e-01       7.910e-02       3.006e-09           0.000           0.000           1.000       1.830e-04         -0.0107
 261       2.339e-01       7.910e-02       5.410e-09          -0.000          -0.000           1.000       5.385e-04         -0.0191
 262       2.221e-01       7.910e-02      -3.730e-09           0.000           0.000           1.000       8.626e-04         -0.0287
 263       2.044e-01       7.910e-02       2.181e-08          -0.000           0.000           1.000       1.137e-03         -0.0394
 264       1.818e-01       7.910e-02       3.641e-08           0.000          -0.000           1.000       1.345e-03         -0.0516
 265       1.555e-01       7.910e-02       3.446e-07           0.000           0.000           1.000       1.474e-03         -0.0658
 266       1.272e-01       7.910e-02       9.930e-07           0.000           0.000           1.000       1.518e-03         -0.0834
 267       9.851e-02       7.910e-02      -1.336e-08          -0.000          -0.000           1.000       1.474e-03         -0.1073
 268       7.104e-02       7.910e-02      -1.739e-06           0.000           0.000           1.000       1.345e-03         -0.1370
 269       4.642e-02       7.910e-02       2.241e-06          -0.000           0.000           1.000       1.137e-03         -0.1851
 270       2.607e-02       7.910e-02      -2.672e-07          -0.000           0.000           1.000       8.626e-04         -0.2664
 271       1.118e-02       7.910e-02      -8.133e-07           0.000          -0.000           1.000       5.385e-04         -0.4467
 272       2.615e-03       7.910e-02      -4.842e-07           0.000           0.000           1.000       1.830e-04         -1.0802
Strip 22
 273       2.391e-01       1.312e-01       3.006e-09           0.000           0.000           1.000       1.805e-04         -0.0106
 274       2.339e-01       1.312e-01       5.410e-09          -0.000           0.000           1.000       5.311e-04         -0.0189
 275       2.221e-01       1.312e-01      -3.730e-09           0.000          -0.000           1.000       8.508e-04         -0.0284
 276       2.044e-01       1.312e-01       2.181e-08          -0.000           0.000           1.000       1.121e-03         -0.0390
 277       1.818e-01       1.312e-01       3.641e-08           0.000          -0.000           1.000       1.326e-03         -0.0511
 278       1.555e-01       1.312e-01       3.446e-07           0.000           0.000           1.000       1.454e-03         -0.0652
 279       1.272e-01       1.312e-01       9.930e-07           0.000          -0.000           1.000       1.498e-03         -0.0826
 280       9.851e-02       1.312e-01      -1.336e-08          -0.000           0.000           1.000       1.454e-03         -0.1065
 281       7.104e-02       1.312e-01      -1.739e-06           0.000          -0.000           1.000       1.326e-03         -0.1360
 282       4.642e-02       1.312e-01       2.241e-06          -0.000           0.000           1.000       1.121e-03         -0.1838
 283       2.607e-02       1.312e-01      -2.672e-07          -0.000           0.000           1.000       8.508e-04         -0.2648
 284       1.118e-02       1.312e-01      -8.133e-07           0.000           0.000           1.000       5.311e-04         -0.4441
 285       2.615e-03       1.312e-01      -4.842e-07           0.000           0.000           1.000       1.805e-04         -1.0740
Strip 23
 286       2.391e-01       1.825e-01       3.006e-09           0.000           0.000           1.000       1.768e-04         -0.0105
 287       2.339e-01       1.825e-01       5.410e-09          -0.000           0.000           1.000       5.201e-04         -0.0186
 288       2.221e-01       1.825e-01      -3.730e-09           0.000           0.000           1.000       8.331e-04         -0.0279
 289       2.044e-01       1.825e-01       2.181e-08          -0.000          -0.000           1.000       1.098e-03         -0.0384
 290       1.818e-01       1.825e-01       3.641e-08           0.000           0.000           1.000       1.299e-03         -0.0504
 291       1.555e-01       1.825e-01       3.446e-07           0.000           0.000           1.000       1.424e-03         -0.0643
 292       1.272e-01       1.825e-01       9.930e-07           0.000           0.000           1.000       1.467e-03         -0.0816
 293       9.851e-02       1.825e-01      -1.336e-08          -0.000          -0.000           1.000       1.424e-03         -0.1052
 294       7.104e-02       1.825e-01      -1.739e-06           0.000           0.000           1.000       1.299e-03         -0.1345
 295       4.642e-02       1.825e-01       2.241e-06          -0.000           0.000           1.000       1.098e-03         -0.1820
 296       2.607e-02       1.825e-01      -2.672e-07          -0.000           0.000           1.000       8.331e-04         -0.2623
 297       1.118e-02       1.825e-01      -8.133e-07           0.000          -0.000           1.000       5.201e-04         -0.4401
 298       2.615e-03       1.825e-01      -4.842e-07           0.000           0.000           1.000       1.768e-04         -1.0645
Strip 24
 299       2.391e-01       2.324e-01       3.006e-09           0.000           0.000           1.000       1.718e-04         -0.0102
 300       2.339e-01       2.324e-01       5.410e-09          -0.000           0.000           1.000       5.055e-04         -0.0181
 301       2.221e-01       2.324e-01      -3.730e-09           0.000           0.000           1.000       8.098e-04         -0.0273
 302       2.044e-01       2.324e-01       2.181e-08          -0.000           0.000           1.000       1.067e-03         -0.0376
 303       1.818e-01       2.324e-01       3.641e-08           0.000          -0.000           1.000       1.262e-03         -0.0493
 304       1.555e-01       2.324e-01       3.446e-07           0.000           0.000           1.000       1.384e-03         -0.0630
 305       1.272e-01       2.324e-01       9.930e-07           0.000           0.000           1.000       1.426e-03         -0.0800
 306       9.851e-02       2.324e-01      -1.336e-08          -0.000          -0.000           1.000       1.384e-03         -0.1035
 307       7.104e-02       2.324e-01      -1.739e-06           0.000           0.000           1.000       1.262e-03         -0.1324
 308       4.642e-02       2.324e-01       2.241e-06          -0.000           0.000           1.000       1.067e-03         -0.1794
 309       2.607e-02       2.324e-01      -2.672e-07          -0.000           0.000           1.000       8.098e-04         -0.2588
 310       1.118e-02       2.324e-01      -8.133e-07           0.000           0.000           1.000       5.055e-04         -0.4346
 311       2.615e-03       2.324e-01      -4.842e-07           0.000           0.000           1.000       1.718e-04         -1.0516
Strip 25
 312       2.391e-01       2.808e-01       3.006e-09           0.000           0.000           1.000       1.657e-04         -0.0099
 313       2.339e-01       2.808e-01       5.410e-09          -0.000           0.000           1.000       4.875e-04         -0.0176
 314       2.221e-01       2.808e-01      -3.730e-09           0.000          -0.000           1.000       7.809e-04         -0.0265
 315       2.044e-01       2.808e-01       2.181e-08          -0.000           0.000           1.000       1.029e-03         -0.0365
 316       1.818e-01       2.808e-01       3.641e-08           0.000           0.000           1.000       1.217e-03         -0.0479
 317       1.555e-01       2.808e-01       3.446e-07           0.000           0.000           1.000       1.335e-03         -0.0614
 318       1.272e-01       2.808e-01       9.930e-07           0.000          -0.000           1.000       1.375e-03         -0.0781
 319       9.851e-02       2.808e-01      -1.336e-08          -0.000           0.000           1.000       1.335e-03         -0.1012
 320       7.104e-02       2.808e-01      -1.739e-06           0.000           0.000           1.000       1.217e-03         -0.1297
 321       4.642e-02       2.808e-01       2.241e-06          -0.000           0.000           1.000       1.029e-03         -0.1760
 322       2.607e-02       2.808e-01      -2.672e-07          -0.000           0.000           1.000       7.809e-04         -0.2544
 323       1.118e-02       2.808e-01      -8.133e-07           0.000           0.000           1.000       4.875e-04         -0.4276
 324       2.615e-03       2.808e-01      -4.842e-07           0.000           0.000           1.000       1.657e-04         -1.0350
Strip 26
 325       2.391e-01       3.273e-01       3.006e-09           0.000           0.000           1.000       1.585e-04         -0.0095
 326       2.339e-01       3.273e-01       5.410e-09          -0.000           0.000           1.000       4.661e-04         -0.0169
 327       2.221e-01       3.273e-01      -3.730e-09           0.000           0.000           1.000       7.467e-04         -0.0255
 328       2.044e-01       3.273e-01       2.181e-08          -0.000           0.000           1.000       9.839e-04         -0.0351
 329       1.818e-01       3.273e-01       3.641e-08           0.000           0.000           1.000       1.164e-03         -0.0462
 330       1.555e-01       3.273e-01       3.446e-07           0.000           0.000           1.000       1.276e-03         -0.0593
 331       1.272e-01       3.273e-01       9.930e-07           0.000           0.000           1.000       1.315e-03         -0.0756
 332       9.851e-02       3.273e-01      -1.336e-08          -0.000           0.000           1.000       1.276e-03         -0.0983
 333       7.104e-02       3.273e-01      -1.739e-06           0.000           0.000           1.000       1.164e-03         -0.1262
 334       4.642e-02       3.273e-01       2.241e-06          -0.000          -0.000           1.000       9.839e-04         -0.1719
 335       2.607e-02       3.273e-01      -2.672e-07          -0.000          -0.000           1.000       7.467e-04         -0.2489
 336       1.118e-02       3.273e-01      -8.133e-07           0.000           0.000           1.000       4.661e-04         -0.4188
 337       2.615e-03       3.273e-01      -4.842e-07           0.000           0.000           1.000       1.585e-04         -1.0144
Strip 27
 338       2.391e-01       3.716e-01       3.006e-09           0.000           0.000           1.000       1.501e-04         -0.0090
 339       2.339e-01       3.716e-01       5.410e-09          -0.000           0.000           1.000       4.416e-04         -0.0161
 340       2.221e-01       3.716e-01      -3.730e-09           0.000           0.000           1.000       7.074e-04         -0.0243
 341       2.044e-01       3.716e-01       2.181e-08          -0.000          -0.000           1.000       9.322e-04         -0.0335
 342       1.818e-01       3.716e-01       3.641e-08           0.000           0.000           1.000       1.103e-03         -0.0441
 343       1.555e-01       3.716e-01       3.446e-07           0.000           0.000           1.000       1.209e-03         -0.0567
 344       1.272e-01       3.716e-01       9.930e-07           0.000           0.000           1.000       1.245e-03         -0.0725
 345       9.851e-02       3.716e-01      -1.336e-08          -0.000           0.000           1.000       1.209e-03         -0.0947
 346       7.104e-02       3.716e-01      -1.739e-06           0.000           0.000           1.000       1.103e-03         -0.1220
 347       4.642e-02       3.716e-01       2.241e-06          -0.000           0.000           1.000       9.322e-04         -0.1667
 348       2.607e-02       3.716e-01      -2.672e-07          -0.000           0.000           1.000       7.074e-04         -0.2421
 349       1.118e-02       3.716e-01      -8.133e-07           0.000          -0.000           1.000       4.416e-04         -0.4082
 350       2.615e-03       3.716e-01      -4.842e-07           0.000           0.000           1.000       1.501e-04         -0.9894
Strip 28
 351       2.391e-01       4.133e-01       3.006e-09           0.000           0.000           1.000       1.407e-04         -0.0085
 352       2.339e-01       4.133e-01       5.410e-09          -0.000           0.000           1.000       4.141e-04         -0.0151
 353       2.221e-01       4.133e-01      -3.730e-09           0.000          -0.000           1.000       6.633e-04         -0.0228
 354       2.044e-01       4.133e-01       2.181e-08          -0.000           0.000           1.000       8.740e-04         -0.0315
 355       1.818e-01       4.133e-01       3.641e-08           0.000           0.000           1.000       1.034e-03         -0.0416
 356       1.555e-01       4.133e-01       3.446e-07           0.000           0.000           1.000       1.134e-03         -0.0536
 357       1.272e-01       4.133e-01       9.930e-07           0.000           0.000           1.000       1.168e-03         -0.0688
 358       9.851e-02       4.133e-01      -1.336e-08          -0.000          -0.000           1.000       1.134e-03         -0.0903
 359       7.104e-02       4.133e-01      -1.739e-06           0.000           0.000           1.000       1.034e-03         -0.1169
 360       4.642e-02       4.133e-01       2.241e-06          -0.000           0.000           1.000       8.740e-04         -0.1606
 361       2.607e-02       4.133e-01      -2.672e-07          -0.000           0.000           1.000       6.633e-04         -0.2340
 362       1.118e-02       4.133e-01      -8.133e-07           0.000           0.000           1.000       4.141e-04         -0.3956
 363       2.615e-03       4.133e-01      -4.842e-07           0.000           0.000           1.000       1.407e-04         -0.9597
Strip 29
 364       2.391e-01       4.522e-01       3.006e-09           0.000           0.000           1.000       1.304e-04         -0.0078
 365       2.339e-01       4.522e-01       5.410e-09          -0.000           0.000           1.000       3.837e-04         -0.0140
 366       2.221e-01       4.522e-01      -3.730e-09           0.000          -0.000           1.000       6.147e-04         -0.0211
 367       2.044e-01       4.522e-01       2.181e-08          -0.000           0.000           1.000       8.099e-04         -0.0292
 368       1.818e-01       4.522e-01       3.641e-08           0.000          -0.000           1.000       9.581e-04         -0.0386
 369       1.555e-01       4.522e-01       3.446e-07           0.000           0.000           1.000       1.051e-03         -0.0500
 370       1.272e-01       4.522e-01       9.930e-07           0.000          -0.000           1.000       1.082e-03         -0.0644
 371       9.851e-02       4.522e-01      -1.336e-08          -0.000           0.000           1.000       1.051e-03         -0.0851
 372       7.104e-02       4.522e-01      -1.739e-06           0.000           0.000           1.000       9.581e-04         -0.1108
 373       4.642e-02       4.522e-01       2.241e-06          -0.000           0.000           1.000       8.099e-04         -0.1532
 374       2.607e-02       4.522e-01      -2.672e-07          -0.000           0.000           1.000       6.147e-04         -0.2244
 375       1.118e-02       4.522e-01      -8.133e-07           0.000           0.000           1.000       3.837e-04         -0.3806
 376       2.615e-03       4.522e-01      -4.842e-07           0.000           0.000           1.000       1.304e-04         -0.9249
Strip 30
 377       2.391e-01       4.880e-01       3.006e-09           0.000           0.000           1.000       1.192e-04         -0.0071
 378       2.339e-01       4.880e-01       5.410e-09          -0.000           0.000           1.000       3.507e-04         -0.0127
 379       2.221e-01       4.880e-01      -3.730e-09           0.000           0.000           1.000       5.618e-04         -0.0192
 380       2.044e-01       4.880e-01       2.181e-08          -0.000          -0.000           1.000       7.403e-04         -0.0266
 381       1.818e-01       4.880e-01       3.641e-08           0.000           0.000           1.000       8.757e-04         -0.0352
 382       1.555e-01       4.880e-01       3.446e-07           0.000           0.000           1.000       9.602e-04         -0.0457
 383       1.272e-01       4.880e-01       9.930e-07           0.000           0.000           1.000       9.890e-04         -0.0593
 384       9.851e-02       4.880e-01      -1.336e-08          -0.000          -0.000           1.000       9.602e-04         -0.0790
 385       7.104e-02       4.880e-01      -1.739e-06           0.000           0.000           1.000       8.757e-04         -0.1035
 386       4.642e-02       4.880e-01       2.241e-06          -0.000           0.000           1.000       7.403e-04         -0.1445
 387       2.607e-02       4.880e-01      -2.672e-07          -0.000           0.000           1.000       5.618e-04         -0.2131
 388       1.118e-02       4.880e-01      -8.133e-07           0.000          -0.000           1.000       3.507e-04         -0.3632
 389       2.615e-03       4.880e-01      -4.842e-07           0.000           0.000           1.000       1.192e-04         -0.8843
Strip 31
 390       2.391e-01       5.204e-01       3.006e-09           0.000           0.000           1.000       1.072e-04         -0.0064
 391       2.339e-01       5.204e-01       5.410e-09          -0.000           0.000           1.000       3.153e-04         -0.0113
 392       2.221e-01       5.204e-01      -3.730e-09           0.000           0.000           1.000       5.051e-04         -0.0171
 393       2.044e-01       5.204e-01       2.181e-08          -0.000           0.000           1.000       6.656e-04         -0.0237
 394       1.818e-01       5.204e-01       3.641e-08           0.000          -0.000           1.000       7.873e-04         -0.0315
 395       1.555e-01       5.204e-01       3.446e-07           0.000           0.000           1.000       8.633e-04         -0.0410
 396       1.272e-01       5.204e-01       9.930e-07           0.000          -0.000           1.000       8.892e-04         -0.0534
 397       9.851e-02       5.204e-01      -1.336e-08          -0.000           0.000           1.000       8.633e-04         -0.0718
 398       7.104e-02       5.204e-01      -1.739e-06           0.000           0.000           1.000       7.873e-04         -0.0950
 399       4.642e-02       5.204e-01       2.241e-06          -0.000          -0.000           1.000       6.656e-04         -0.1342
 400       2.607e-02       5.204e-01      -2.672e-07          -0.000          -0.000           1.000       5.051e-04         -0.1999
 401       1.118e-02       5.204e-01      -8.133e-07           0.000           0.000           1.000       3.153e-04         -0.3430
 402       2.615e-03       5.204e-01      -4.842e-07           0.000           0.000           1.000       1.072e-04         -0.8376
Strip 32
 403       2.391e-01       5.493e-01       3.006e-09           0.000           0.000           1.000       9.442e-05         -0.0056
 404       2.339e-01       5.493e-01       5.410e-09          -0.000           0.000           1.000       2.778e-04         -0.0099
 405       2.221e-01       5.493e-01      -3.730e-09           0.000           0.000           1.000       4.450e-04         -0.0150
 406       2.044e-01       5.493e-01       2.181e-08          -0.000          -0.000           1.000       5.863e-04         -0.0207
 407       1.818e-01       5.493e-01       3.641e-08           0.000           0.000           1.000       6.936e-04         -0.0275
 408       1.555e-01       5.493e-01       3.446e-07           0.000           0.000           1.000       7.605e-04         -0.0358
 409       1.272e-01       5.493e-01       9.930e-07           0.000          -0.000           1.000       7.833e-04         -0.0469
 410       9.851e-02       5.493e-01      -1.336e-08          -0.000           0.000           1.000       7.605e-04         -0.0637
 411       7.104e-02       5.493e-01      -1.739e-06           0.000           0.000           1.000       6.936e-04         -0.0851
 412       4.642e-02       5.493e-01       2.241e-06          -0.000           0.000           1.000       5.863e-04         -0.1221
 413       2.607e-02       5.493e-01      -2.672e-07          -0.000           0.000           1.000       4.450e-04         -0.1845
 414       1.118e-02       5.493e-01      -8.133e-07           0.000           0.000           1.000       2.778e-04         -0.3197
 415       2.615e-03       5.493e-01      -4.842e-07           0.000           0.000           1.000       9.442e-05         -0.7840
Strip 33
 416       2.391e-01       5.745e-01       3.006e-09           0.000           0.000           1.000       8.101e-05         -0.0048
 417       2.339e-01       5.745e-01       5.410e-09          -0.000           0.000           1.000       2.383e-04         -0.0085
 418       2.221e-01       5.745e-01      -3.730e-09           0.000           0.000           1.000       3.818e-04         -0.0128
 419       2.044e-01       5.745e-01       2.181e-08          -0.000           0.000           1.000       5.030e-04         -0.0177
 420       1.818e-01       5.745e-01       3.641e-08           0.000           0.000           1.000       5.951e-04         -0.0234
 421       1.555e-01       5.745e-01       3.446e-07           0.000           0.000           1.000       6.525e-04         -0.0304
 422       1.272e-01       5.745e-01       9.930e-07           0.000           0.000           1.000       6.721e-04         -0.0399
 423       9.851e-02       5.745e-01      -1.336e-08          -0.000           0.000           1.000       6.525e-04         -0.0547
 424       7.104e-02       5.745e-01      -1.739e-06           0.000           0.000           1.000       5.951e-04         -0.0737
 425       4.642e-02       5.745e-01       2.241e-06          -0.000           0.000           1.000       5.030e-04         -0.1079
 426       2.607e-02       5.745e-01      -2.672e-07          -0.000           0.000           1.000       3.818e-04         -0.1665
 427       1.118e-02       5.745e-01      -8.133e-07           0.000           0.000           1.000       2.383e-04         -0.2929
 428       2.615e-03       5.745e-01      -4.842e-07           0.000           0.000           1.000       8.101e-05         -0.7230
Strip 34
 429       2.391e-01       5.957e-01       3.006e-09           0.000           0.000           1.000       6.705e-05         -0.0040
 430       2.339e-01       5.957e-01       5.410e-09          -0.000           0.000           1.000       1.972e-04         -0.0071
 431       2.221e-01       5.957e-01      -3.730e-09           0.000           0.000           1.000       3.160e-04         -0.0107
 432       2.044e-01       5.957e-01       2.181e-08          -0.000           0.000           1.000       4.164e-04         -0.0146
 433       1.818e-01       5.957e-01       3.641e-08           0.000           0.000           1.000       4.925e-04         -0.0193
 434       1.555e-01       5.957e-01       3.446e-07           0.000           0.000           1.000       5.401e-04         -0.0250
 435       1.272e-01       5.957e-01       9.930e-07           0.000           0.000           1.000       5.562e-04         -0.0327
 436       9.851e-02       5.957e-01      -1.336e-08          -0.000           0.000           1.000       5.401e-04         -0.0452
 437       7.104e-02       5.957e-01      -1.739e-06           0.000           0.000           1.000       4.925e-04         -0.0611
 438       4.642e-02       5.957e-01       2.241e-06          -0.000           0.000           1.000       4.164e-04         -0.0916
 439       2.607e-02       5.957e-01      -2.672e-07          -0.000           0.000           1.000       3.160e-04         -0.1453
 440       1.118e-02       5.957e-01      -8.133e-07           0.000           0.000           1.000       1.972e-04         -0.2619
 441       2.615e-03       5.957e-01      -4.842e-07           0.000           0.000           1.000       6.705e-05         -0.6535
Strip 35
 442       2.391e-01       6.129e-01       3.006e-09           0.000           0.000           1.000       5.263e-05         -0.0033
 443       2.339e-01       6.129e-01       5.410e-09          -0.000           0.000           1.000       1.548e-04         -0.0058
 444       2.221e-01       6.129e-01      -3.730e-09           0.000           0.000           1.000       2.480e-04         -0.0086
 445       2.044e-01       6.129e-01       2.181e-08          -0.000           0.000           1.000       3.268e-04         -0.0117
 446       1.818e-01       6.129e-01       3.641e-08           0.000           0.000           1.000       3.866e-04         -0.0153
 447       1.555e-01       6.129e-01       3.446e-07           0.000           0.000           1.000       4.239e-04         -0.0197
 448       1.272e-01       6.129e-01       9.930e-07           0.000           0.000           1.000       4.366e-04         -0.0257
 449       9.851e-02       6.129e-01      -1.336e-08          -0.000           0.000           1.000       4.239e-04         -0.0357
 450       7.104e-02       6.129e-01      -1.739e-06           0.000           0.000           1.000       3.866e-04         -0.0480
 451       4.642e-02       6.129e-01       2.241e-06          -0.000           0.000           1.000       3.268e-04         -0.0732
 452       2.607e-02       6.129e-01      -2.672e-07          -0.000           0.000           1.000       2.480e-04         -0.1201
 453       1.118e-02       6.129e-01      -8.133e-07           0.000           0.000           1.000       1.548e-04         -0.2255
 454       2.615e-03       6.129e-01      -4.842e-07           0.000           0.000           1.000       5.263e-05         -0.5742
Strip 36
 455       2.391e-01       6.258e-01       3.006e-09           0.000           0.000           1.000       3.785e-05         -0.0026
 456       2.339e-01       6.258e-01       5.410e-09          -0.000           0.000           1.000       1.114e-04         -0.0045
 457       2.221e-01       6.258e-01      -3.730e-09           0.000           0.000           1.000       1.784e-04         -0.0065
 458       2.044e-01       6.258e-01       2.181e-08          -0.000           0.000           1.000       2.351e-04         -0.0088
 459       1.818e-01       6.258e-01       3.641e-08           0.000           0.000           1.000       2.781e-04         -0.0115
 460       1.555e-01       6.258e-01       3.446e-07           0.000           0.000           1.000       3.049e-04         -0.0147
 461       1.272e-01       6.258e-01       9.930e-07           0.000           0.000           1.000       3.140e-04         -0.0190
 462       9.851e-02       6.258e-01      -1.336e-08          -0.000           0.000           1.000       3.049e-04         -0.0266
 463       7.104e-02       6.258e-01      -1.739e-06           0.000           0.000           1.000       2.781e-04         -0.0352
 464       4.642e-02       6.258e-01       2.241e-06          -0.000           0.000           1.000       2.351e-04         -0.0540
 465       2.607e-02       6.258e-01      -2.672e-07          -0.000          -0.000           1.000       1.784e-04         -0.0910
 466       1.118e-02       6.258e-01      -8.133e-07           0.000          -0.000           1.000       1.114e-04         -0.1819
 467       2.615e-03       6.258e-01      -4.842e-07           0.000           0.000           1.000       3.785e-05         -0.4829
Strip 37
 468       2.391e-01       6.345e-01       3.006e-09           0.000           0.000           1.000       2.281e-05         -0.0019
 469       2.339e-01       6.345e-01       5.410e-09          -0.000           0.000           1.000       6.712e-05         -0.0032
 470       2.221e-01       6.345e-01      -3.730e-09           0.000           0.000           1.000       1.075e-04         -0.0045
 471       2.044e-01       6.345e-01       2.181e-08          -0.000           0.000           1.000       1.417e-04         -0.0060
 472       1.818e-01       6.345e-01       3.641e-08           0.000           0.000           1.000       1.676e-04         -0.0078
 473       1.555e-01       6.345e-01       3.446e-07           0.000           0.000           1.000       1.838e-04         -0.0100
 474       1.272e-01       6.345e-01       9.930e-07           0.000           0.000           1.000       1.893e-04         -0.0128
 475       9.851e-02       6.345e-01      -1.336e-08          -0.000           0.000           1.000       1.838e-04         -0.0180
 476       7.104e-02       6.345e-01      -1.739e-06           0.000           0.000           1.000       1.676e-04         -0.0235
 477       4.642e-02       6.345e-01       2.241e-06          -0.000           0.000           1.000       1.417e-04         -0.0359
 478       2.607e-02       6.345e-01      -2.672e-07          -0.000           0.000           1.000       1.075e-04         -0.0602
 479       1.118e-02       6.345e-01      -8.133e-07           0.000           0.000           1.000       6.712e-05         -0.1278
 480       2.615e-03       6.345e-01      -4.842e-07           0.000           0.000           1.000       2.281e-05         -0.3756
Strip 38
 481       2.391e-01       6.389e-01       3.006e-09           0.000           0.000           1.000       7.622e-06         -0.0012
 482       2.339e-01       6.389e-01       5.410e-09          -0.000           0.000           1.000       2.242e-05         -0.0019
 483       2.221e-01       6.389e-01      -3.730e-09           0.000           0.000           1.000       3.592e-05         -0.0026
 484       2.044e-01       6.389e-01       2.181e-08          -0.000           0.000           1.000       4.733e-05         -0.0035
 485       1.818e-01       6.389e-01       3.641e-08           0.000           0.000           1.000       5.599e-05         -0.0045
 486       1.555e-01       6.389e-01       3.446e-07           0.000           0.000           1.000       6.140e-05         -0.0057
 487       1.272e-01       6.389e-01       9.930e-07           0.000           0.000           1.000       6.324e-05         -0.0074
 488       9.851e-02       6.389e-01      -1.336e-08          -0.000           0.000           1.000       6.140e-05         -0.0103
 489       7.104e-02       6.389e-01      -1.739e-06           0.000           0.000           1.000       5.599e-05         -0.0134
 490       4.642e-02       6.389e-01       2.241e-06          -0.000           0.000           1.000       4.733e-05         -0.0204
 491       2.607e-02       6.389e-01      -2.672e-07          -0.000           0.000           1.000       3.592e-05         -0.0337
 492       1.118e-02       6.389e-01      -8.133e-07           0.000           0.000           1.000       2.242e-05         -0.0704
 493       2.615e-03       6.389e-01      -4.842e-07           0.000           0.000           1.000       7.622e-06         -0.2424










