xflr5 v6.50

Plane Name
T1-44.0 m/s-VLM1
QInf  =   44.000000 m/s
Alpha =   11.000000
Beta  =    0.000°
Phi   =    0.000°
Ctrl  =    0.000
CL    =    0.778192
Cy    =    0.000000
Cd    =    0.049535     ICd   =    0.035558     PCd   =    0.013977
Cl   = 1.79395e-17
Cm   =   -0.184033
ICn   =    0.000000     PCn   =    0.000000 
XCP   =    0.057610     YCP   =    0.000000     ZCP   =   -0.000000  
XNP   =    0.000000
Bending =   36.282926

Main Wing
  y-span        Chord      Ai         Cl        PCd          ICd        CmGeom    CmAirf@chord/4    XTrtop    XTrBot      XCP       BM
   -0.6389     0.2400    -4.344    0.114215    0.006915    0.008676   -0.021583    0.007300     0.6440    0.6931    0.1861    0.0000
   -0.6345     0.2400    -4.290    0.196525    0.006980    0.014744   -0.037359    0.012105     0.6252    0.7125    0.1884    0.0003
   -0.6258     0.2400    -4.204    0.282527    0.007005    0.020765   -0.054963    0.016003     0.5973    0.7346    0.1934    0.0041
   -0.6129     0.2400    -4.089    0.365695    0.007113    0.026142   -0.073374    0.018389     0.5607    0.7565    0.1997    0.0211
   -0.5957     0.2400    -3.949    0.444157    0.007270    0.030664   -0.092115    0.019272     0.5227    0.7784    0.2066    0.0705
   -0.5745     0.2400    -3.789    0.516766    0.007950    0.034221   -0.110668    0.018903     0.4096    0.8034    0.2134    0.1833
   -0.5493     0.2400    -3.611    0.582776    0.010285    0.036783   -0.128536    0.017648     0.1424    0.8372    0.2197    0.4028
   -0.5204     0.2400    -3.424    0.641791    0.011501    0.038402   -0.145112    0.015885     0.0688    0.8706    0.2252    0.7849
   -0.4880     0.2400    -3.234    0.693730    0.012332    0.039199   -0.160089    0.013931     0.0452    0.9062    0.2299    1.3963
   -0.4522     0.2400    -3.048    0.738779    0.013097    0.039340   -0.173302    0.012017     0.0348    0.9395    0.2337    2.3120
   -0.4133     0.2400    -2.873    0.777320    0.013795    0.039008   -0.184708    0.010280     0.0298    0.9630    0.2368    3.6125
   -0.3716     0.2400    -2.713    0.809849    0.014400    0.038373   -0.194366    0.008783     0.0273    0.9759    0.2392    5.3798
   -0.3273     0.2400    -2.571    0.836906    0.014982    0.037583   -0.202399    0.007542     0.0255    0.9840    0.2410    7.6937
   -0.2808     0.2400    -2.450    0.859023    0.015534    0.036751   -0.208952    0.006544     0.0244    0.9882    0.2424   10.6276
   -0.2324     0.2400    -2.349    0.876683    0.015975    0.035963   -0.214167    0.005766     0.0236    0.9915    0.2434   14.2448
   -0.1825     0.2400    -2.269    0.890304    0.016314    0.035277   -0.218175    0.005179     0.0229    0.9941    0.2442   18.5953
   -0.1312     0.2400    -2.210    0.900223    0.016561    0.034735   -0.221084    0.004762     0.0224    0.9959    0.2447   23.7124
   -0.0791     0.2400    -2.170    0.906694    0.016722    0.034362   -0.222978    0.004494     0.0221    0.9970    0.2450   29.6104
   -0.0264     0.2400    -2.151    0.909888    0.016802    0.034171   -0.223911    0.004363     0.0220    0.9976    0.2452   36.2829
    0.0264     0.2400    -2.151    0.909888    0.016802    0.034171   -0.223911    0.004363     0.0220    0.9976    0.2452   36.2829
    0.0791     0.2400    -2.170    0.906694    0.016722    0.034362   -0.222978    0.004494     0.0221    0.9970    0.2450   29.6104
    0.1312     0.2400    -2.210    0.900223    0.016561    0.034735   -0.221084    0.004762     0.0224    0.9959    0.2447   23.7124
    0.1825     0.2400    -2.269    0.890304    0.016314    0.035277   -0.218175    0.005179     0.0229    0.9941    0.2442   18.5953
    0.2324     0.2400    -2.349    0.876683    0.015975    0.035963   -0.214167    0.005766     0.0236    0.9915    0.2434   14.2448
    0.2808     0.2400    -2.450    0.859023    0.015534    0.036751   -0.208952    0.006544     0.0244    0.9882    0.2424   10.6276
    0.3273     0.2400    -2.571    0.836906    0.014982    0.037583   -0.202399    0.007542     0.0255    0.9840    0.2410    7.6937
    0.3716     0.2400    -2.713    0.809849    0.014400    0.038373   -0.194366    0.008783     0.0273    0.9759    0.2392    5.3798
    0.4133     0.2400    -2.873    0.777320    0.013795    0.039008   -0.184708    0.010280     0.0298    0.9630    0.2368    3.6125
    0.4522     0.2400    -3.048    0.738779    0.013097    0.039340   -0.173302    0.012017     0.0348    0.9395    0.2337    2.3120
    0.4880     0.2400    -3.234    0.693730    0.012332    0.039199   -0.160089    0.013931     0.0452    0.9062    0.2299    1.3963
    0.5204     0.2400    -3.424    0.641791    0.011501    0.038402   -0.145112    0.015885     0.0688    0.8706    0.2252    0.7849
    0.5493     0.2400    -3.611    0.582776    0.010285    0.036783   -0.128536    0.017648     0.1424    0.8372    0.2197    0.4028
    0.5745     0.2400    -3.789    0.516766    0.007950    0.034221   -0.110668    0.018903     0.4096    0.8034    0.2134    0.1833
    0.5957     0.2400    -3.949    0.444157    0.007270    0.030664   -0.092115    0.019272     0.5227    0.7784    0.2066    0.0705
    0.6129     0.2400    -4.089    0.365695    0.007113    0.026142   -0.073374    0.018389     0.5607    0.7565    0.1997    0.0211
    0.6258     0.2400    -4.204    0.282527    0.007005    0.020765   -0.054963    0.016003     0.5973    0.7346    0.1934    0.0041
    0.6345     0.2400    -4.290    0.196525    0.006980    0.014744   -0.037359    0.012105     0.6252    0.7125    0.1884    0.0003
    0.6389     0.2400    -4.344    0.114215    0.006915    0.008676   -0.021583    0.007300     0.6440    0.6931    0.1861    0.0000


Main Wing Cp Coefficients
 Panel     CtrlPt.x        CtrlPt.y        CtrlPt.z       Nx      Ny       Nz        Area       Cp
Main WingCp Coefficients
Strip 1
   0       2.391e-01      -6.389e-01       3.006e-09           0.000           0.000           1.000       7.622e-06          0.0088
   1       2.339e-01      -6.389e-01       5.410e-09          -0.000           0.000           1.000       2.242e-05          0.0135
   2       2.221e-01      -6.389e-01      -3.730e-09           0.000           0.000           1.000       3.592e-05          0.0188
   3       2.044e-01      -6.389e-01       2.181e-08          -0.000           0.000           1.000       4.733e-05          0.0249
   4       1.818e-01      -6.389e-01       3.641e-08           0.000           0.000           1.000       5.599e-05          0.0322
   5       1.555e-01      -6.389e-01       3.446e-07           0.000           0.000           1.000       6.140e-05          0.0414
   6       1.272e-01      -6.389e-01       9.930e-07           0.000           0.000           1.000       6.324e-05          0.0539
   7       9.851e-02      -6.389e-01      -1.336e-08          -0.000           0.000           1.000       6.140e-05          0.0710
   8       7.104e-02      -6.389e-01      -1.739e-06           0.000           0.000           1.000       5.599e-05          0.0989
   9       4.642e-02      -6.389e-01       2.241e-06          -0.000           0.000           1.000       4.733e-05          0.1452
  10       2.607e-02      -6.389e-01      -2.672e-07          -0.000           0.000           1.000       3.592e-05          0.2405
  11       1.118e-02      -6.389e-01      -8.133e-07           0.000           0.000           1.000       2.242e-05          0.5027
  12       2.615e-03      -6.389e-01      -4.842e-07           0.000           0.000           1.000       7.622e-06          1.7395
Strip 2
  13       2.391e-01      -6.345e-01       3.006e-09           0.000           0.000           1.000       2.281e-05          0.0138
  14       2.339e-01      -6.345e-01       5.410e-09          -0.000           0.000           1.000       6.712e-05          0.0228
  15       2.221e-01      -6.345e-01      -3.730e-09           0.000           0.000           1.000       1.075e-04          0.0325
  16       2.044e-01      -6.345e-01       2.181e-08          -0.000           0.000           1.000       1.417e-04          0.0431
  17       1.818e-01      -6.345e-01       3.641e-08           0.000           0.000           1.000       1.676e-04          0.0558
  18       1.555e-01      -6.345e-01       3.446e-07           0.000           0.000           1.000       1.838e-04          0.0720
  19       1.272e-01      -6.345e-01       9.930e-07           0.000           0.000           1.000       1.893e-04          0.0937
  20       9.851e-02      -6.345e-01      -1.336e-08          -0.000           0.000           1.000       1.838e-04          0.1238
  21       7.104e-02      -6.345e-01      -1.739e-06           0.000           0.000           1.000       1.676e-04          0.1729
  22       4.642e-02      -6.345e-01       2.241e-06          -0.000           0.000           1.000       1.417e-04          0.2557
  23       2.607e-02      -6.345e-01      -2.672e-07          -0.000           0.000           1.000       1.075e-04          0.4291
  24       1.118e-02      -6.345e-01      -8.133e-07           0.000           0.000           1.000       6.712e-05          0.9129
  25       2.615e-03      -6.345e-01      -4.842e-07           0.000           0.000           1.000       2.281e-05          2.6941
Strip 3
  26       2.391e-01      -6.258e-01       3.006e-09           0.000           0.000           1.000       3.785e-05          0.0187
  27       2.339e-01      -6.258e-01       5.410e-09          -0.000           0.000           1.000       1.114e-04          0.0321
  28       2.221e-01      -6.258e-01      -3.730e-09           0.000           0.000           1.000       1.784e-04          0.0469
  29       2.044e-01      -6.258e-01       2.181e-08          -0.000           0.000           1.000       2.351e-04          0.0629
  30       1.818e-01      -6.258e-01       3.641e-08           0.000           0.000           1.000       2.781e-04          0.0819
  31       1.555e-01      -6.258e-01       3.446e-07           0.000           0.000           1.000       3.049e-04          0.1060
  32       1.272e-01      -6.258e-01       9.930e-07           0.000           0.000           1.000       3.140e-04          0.1384
  33       9.851e-02      -6.258e-01      -1.336e-08          -0.000           0.000           1.000       3.049e-04          0.1838
  34       7.104e-02      -6.258e-01      -1.739e-06           0.000           0.000           1.000       2.781e-04          0.2582
  35       4.642e-02      -6.258e-01       2.241e-06          -0.000           0.000           1.000       2.351e-04          0.3855
  36       2.607e-02      -6.258e-01      -2.672e-07          -0.000           0.000           1.000       1.784e-04          0.6492
  37       1.118e-02      -6.258e-01      -8.133e-07           0.000           0.000           1.000       1.114e-04          1.2998
  38       2.615e-03      -6.258e-01      -4.842e-07           0.000           0.000           1.000       3.785e-05          3.4624
Strip 4
  39       2.391e-01      -6.129e-01       3.006e-09           0.000           0.000           1.000       5.263e-05          0.0237
  40       2.339e-01      -6.129e-01       5.410e-09          -0.000           0.000           1.000       1.548e-04          0.0414
  41       2.221e-01      -6.129e-01      -3.730e-09           0.000          -0.000           1.000       2.480e-04          0.0614
  42       2.044e-01      -6.129e-01       2.181e-08          -0.000           0.000           1.000       3.268e-04          0.0834
  43       1.818e-01      -6.129e-01       3.641e-08           0.000          -0.000           1.000       3.866e-04          0.1093
  44       1.555e-01      -6.129e-01       3.446e-07           0.000           0.000           1.000       4.239e-04          0.1420
  45       1.272e-01      -6.129e-01       9.930e-07           0.000           0.000           1.000       4.366e-04          0.1862
  46       9.851e-02      -6.129e-01      -1.336e-08          -0.000           0.000           1.000       4.239e-04          0.2487
  47       7.104e-02      -6.129e-01      -1.739e-06           0.000           0.000           1.000       3.866e-04          0.3503
  48       4.642e-02      -6.129e-01       2.241e-06          -0.000           0.000           1.000       3.268e-04          0.5228
  49       2.607e-02      -6.129e-01      -2.672e-07          -0.000           0.000           1.000       2.480e-04          0.8580
  50       1.118e-02      -6.129e-01      -8.133e-07           0.000           0.000           1.000       1.548e-04          1.6124
  51       2.615e-03      -6.129e-01      -4.842e-07           0.000           0.000           1.000       5.263e-05          4.1159
Strip 5
  52       2.391e-01      -5.957e-01       3.006e-09           0.000           0.000           1.000       6.705e-05          0.0289
  53       2.339e-01      -5.957e-01       5.410e-09          -0.000           0.000           1.000       1.972e-04          0.0509
  54       2.221e-01      -5.957e-01      -3.730e-09           0.000           0.000           1.000       3.160e-04          0.0763
  55       2.044e-01      -5.957e-01       2.181e-08          -0.000           0.000           1.000       4.164e-04          0.1046
  56       1.818e-01      -5.957e-01       3.641e-08           0.000          -0.000           1.000       4.925e-04          0.1378
  57       1.555e-01      -5.957e-01       3.446e-07           0.000           0.000           1.000       5.401e-04          0.1798
  58       1.272e-01      -5.957e-01       9.930e-07           0.000          -0.000           1.000       5.562e-04          0.2364
  59       9.851e-02      -5.957e-01      -1.336e-08          -0.000           0.000           1.000       5.401e-04          0.3167
  60       7.104e-02      -5.957e-01      -1.739e-06           0.000           0.000           1.000       4.925e-04          0.4444
  61       4.642e-02      -5.957e-01       2.241e-06          -0.000           0.000           1.000       4.164e-04          0.6542
  62       2.607e-02      -5.957e-01      -2.672e-07          -0.000           0.000           1.000       3.160e-04          1.0376
  63       1.118e-02      -5.957e-01      -8.133e-07           0.000           0.000           1.000       1.972e-04          1.8724
  64       2.615e-03      -5.957e-01      -4.842e-07           0.000           0.000           1.000       6.705e-05          4.6834
Strip 6
  65       2.391e-01      -5.745e-01       3.006e-09           0.000           0.000           1.000       8.101e-05          0.0344
  66       2.339e-01      -5.745e-01       5.410e-09          -0.000           0.000           1.000       2.383e-04          0.0608
  67       2.221e-01      -5.745e-01      -3.730e-09           0.000           0.000           1.000       3.818e-04          0.0917
  68       2.044e-01      -5.745e-01       2.181e-08          -0.000           0.000           1.000       5.030e-04          0.1263
  69       1.818e-01      -5.745e-01       3.641e-08           0.000           0.000           1.000       5.951e-04          0.1671
  70       1.555e-01      -5.745e-01       3.446e-07           0.000           0.000           1.000       6.525e-04          0.2187
  71       1.272e-01      -5.745e-01       9.930e-07           0.000           0.000           1.000       6.721e-04          0.2877
  72       9.851e-02      -5.745e-01      -1.336e-08          -0.000           0.000           1.000       6.525e-04          0.3846
  73       7.104e-02      -5.745e-01      -1.739e-06           0.000           0.000           1.000       5.951e-04          0.5343
  74       4.642e-02      -5.745e-01       2.241e-06          -0.000           0.000           1.000       5.030e-04          0.7714
  75       2.607e-02      -5.745e-01      -2.672e-07          -0.000           0.000           1.000       3.818e-04          1.1895
  76       1.118e-02      -5.745e-01      -8.133e-07           0.000           0.000           1.000       2.383e-04          2.0946
  77       2.615e-03      -5.745e-01      -4.842e-07           0.000           0.000           1.000       8.101e-05          5.1807
Strip 7
  78       2.391e-01      -5.493e-01       3.006e-09           0.000           0.000           1.000       9.442e-05          0.0401
  79       2.339e-01      -5.493e-01       5.410e-09          -0.000           0.000           1.000       2.778e-04          0.0710
  80       2.221e-01      -5.493e-01      -3.730e-09           0.000          -0.000           1.000       4.450e-04          0.1072
  81       2.044e-01      -5.493e-01       2.181e-08          -0.000           0.000           1.000       5.863e-04          0.1482
  82       1.818e-01      -5.493e-01       3.641e-08           0.000           0.000           1.000       6.936e-04          0.1966
  83       1.555e-01      -5.493e-01       3.446e-07           0.000           0.000           1.000       7.605e-04          0.2573
  84       1.272e-01      -5.493e-01       9.930e-07           0.000          -0.000           1.000       7.833e-04          0.3378
  85       9.851e-02      -5.493e-01      -1.336e-08          -0.000           0.000           1.000       7.605e-04          0.4489
  86       7.104e-02      -5.493e-01      -1.739e-06           0.000           0.000           1.000       6.936e-04          0.6157
  87       4.642e-02      -5.493e-01       2.241e-06          -0.000           0.000           1.000       5.863e-04          0.8727
  88       2.607e-02      -5.493e-01      -2.672e-07          -0.000           0.000           1.000       4.450e-04          1.3186
  89       1.118e-02      -5.493e-01      -8.133e-07           0.000           0.000           1.000       2.778e-04          2.2867
  90       2.615e-03      -5.493e-01      -4.842e-07           0.000           0.000           1.000       9.442e-05          5.6175
Strip 8
  91       2.391e-01      -5.204e-01       3.006e-09           0.000           0.000           1.000       1.072e-04          0.0458
  92       2.339e-01      -5.204e-01       5.410e-09          -0.000           0.000           1.000       3.153e-04          0.0811
  93       2.221e-01      -5.204e-01      -3.730e-09           0.000           0.000           1.000       5.051e-04          0.1227
  94       2.044e-01      -5.204e-01       2.181e-08          -0.000          -0.000           1.000       6.656e-04          0.1697
  95       1.818e-01      -5.204e-01       3.641e-08           0.000           0.000           1.000       7.873e-04          0.2252
  96       1.555e-01      -5.204e-01       3.446e-07           0.000           0.000           1.000       8.633e-04          0.2943
  97       1.272e-01      -5.204e-01       9.930e-07           0.000           0.000           1.000       8.892e-04          0.3846
  98       9.851e-02      -5.204e-01      -1.336e-08          -0.000          -0.000           1.000       8.633e-04          0.5072
  99       7.104e-02      -5.204e-01      -1.739e-06           0.000           0.000           1.000       7.873e-04          0.6869
 100       4.642e-02      -5.204e-01       2.241e-06          -0.000          -0.000           1.000       6.656e-04          0.9593
 101       2.607e-02      -5.204e-01      -2.672e-07          -0.000           0.000           1.000       5.051e-04          1.4290
 102       1.118e-02      -5.204e-01      -8.133e-07           0.000           0.000           1.000       3.153e-04          2.4533
 103       2.615e-03      -5.204e-01      -4.842e-07           0.000           0.000           1.000       1.072e-04          6.0006
Strip 9
 104       2.391e-01      -4.880e-01       3.006e-09           0.000           0.000           1.000       1.192e-04          0.0512
 105       2.339e-01      -4.880e-01       5.410e-09          -0.000           0.000           1.000       3.507e-04          0.0908
 106       2.221e-01      -4.880e-01      -3.730e-09           0.000           0.000           1.000       5.618e-04          0.1374
 107       2.044e-01      -4.880e-01       2.181e-08          -0.000           0.000           1.000       7.403e-04          0.1901
 108       1.818e-01      -4.880e-01       3.641e-08           0.000          -0.000           1.000       8.757e-04          0.2520
 109       1.555e-01      -4.880e-01       3.446e-07           0.000          -0.000           1.000       9.602e-04          0.3283
 110       1.272e-01      -4.880e-01       9.930e-07           0.000           0.000           1.000       9.890e-04          0.4268
 111       9.851e-02      -4.880e-01      -1.336e-08          -0.000          -0.000           1.000       9.602e-04          0.5584
 112       7.104e-02      -4.880e-01      -1.739e-06           0.000           0.000           1.000       8.757e-04          0.7480
 113       4.642e-02      -4.880e-01       2.241e-06          -0.000          -0.000           1.000       7.403e-04          1.0329
 114       2.607e-02      -4.880e-01      -2.672e-07          -0.000          -0.000           1.000       5.618e-04          1.5235
 115       1.118e-02      -4.880e-01      -8.133e-07           0.000          -0.000           1.000       3.507e-04          2.5978
 116       2.615e-03      -4.880e-01      -4.842e-07           0.000           0.000           1.000       1.192e-04          6.3351
Strip 10
 117       2.391e-01      -4.522e-01       3.006e-09           0.000           0.000           1.000       1.304e-04          0.0563
 118       2.339e-01      -4.522e-01       5.410e-09          -0.000           0.000           1.000       3.837e-04          0.0998
 119       2.221e-01      -4.522e-01      -3.730e-09           0.000          -0.000           1.000       6.147e-04          0.1510
 120       2.044e-01      -4.522e-01       2.181e-08          -0.000          -0.000           1.000       8.099e-04          0.2087
 121       1.818e-01      -4.522e-01       3.641e-08           0.000           0.000           1.000       9.581e-04          0.2762
 122       1.555e-01      -4.522e-01       3.446e-07           0.000           0.000           1.000       1.051e-03          0.3586
 123       1.272e-01      -4.522e-01       9.930e-07           0.000           0.000           1.000       1.082e-03          0.4637
 124       9.851e-02      -4.522e-01      -1.336e-08          -0.000           0.000           1.000       1.051e-03          0.6023
 125       7.104e-02      -4.522e-01      -1.739e-06           0.000           0.000           1.000       9.581e-04          0.8000
 126       4.642e-02      -4.522e-01       2.241e-06          -0.000           0.000           1.000       8.099e-04          1.0955
 127       2.607e-02      -4.522e-01      -2.672e-07          -0.000           0.000           1.000       6.147e-04          1.6043
 128       1.118e-02      -4.522e-01      -8.133e-07           0.000          -0.000           1.000       3.837e-04          2.7225
 129       2.615e-03      -4.522e-01      -4.842e-07           0.000           0.000           1.000       1.304e-04          6.6253
Strip 11
 130       2.391e-01      -4.133e-01       3.006e-09           0.000           0.000           1.000       1.407e-04          0.0609
 131       2.339e-01      -4.133e-01       5.410e-09          -0.000           0.000           1.000       4.141e-04          0.1079
 132       2.221e-01      -4.133e-01      -3.730e-09           0.000          -0.000           1.000       6.633e-04          0.1631
 133       2.044e-01      -4.133e-01       2.181e-08          -0.000           0.000           1.000       8.740e-04          0.2252
 134       1.818e-01      -4.133e-01       3.641e-08           0.000           0.000           1.000       1.034e-03          0.2974
 135       1.555e-01      -4.133e-01       3.446e-07           0.000           0.000           1.000       1.134e-03          0.3848
 136       1.272e-01      -4.133e-01       9.930e-07           0.000           0.000           1.000       1.168e-03          0.4952
 137       9.851e-02      -4.133e-01      -1.336e-08          -0.000           0.000           1.000       1.134e-03          0.6395
 138       7.104e-02      -4.133e-01      -1.739e-06           0.000           0.000           1.000       1.034e-03          0.8437
 139       4.642e-02      -4.133e-01       2.241e-06          -0.000           0.000           1.000       8.740e-04          1.1482
 140       2.607e-02      -4.133e-01      -2.672e-07          -0.000           0.000           1.000       6.633e-04          1.6729
 141       1.118e-02      -4.133e-01      -8.133e-07           0.000           0.000           1.000       4.141e-04          2.8293
 142       2.615e-03      -4.133e-01      -4.842e-07           0.000           0.000           1.000       1.407e-04          6.8750
Strip 12
 143       2.391e-01      -3.716e-01       3.006e-09           0.000           0.000           1.000       1.501e-04          0.0649
 144       2.339e-01      -3.716e-01       5.410e-09          -0.000           0.000           1.000       4.416e-04          0.1149
 145       2.221e-01      -3.716e-01      -3.730e-09           0.000           0.000           1.000       7.074e-04          0.1736
 146       2.044e-01      -3.716e-01       2.181e-08          -0.000          -0.000           1.000       9.322e-04          0.2394
 147       1.818e-01      -3.716e-01       3.641e-08           0.000           0.000           1.000       1.103e-03          0.3155
 148       1.555e-01      -3.716e-01       3.446e-07           0.000           0.000           1.000       1.209e-03          0.4070
 149       1.272e-01      -3.716e-01       9.930e-07           0.000          -0.000           1.000       1.245e-03          0.5217
 150       9.851e-02      -3.716e-01      -1.336e-08          -0.000           0.000           1.000       1.209e-03          0.6706
 151       7.104e-02      -3.716e-01      -1.739e-06           0.000           0.000           1.000       1.103e-03          0.8802
 152       4.642e-02      -3.716e-01       2.241e-06          -0.000          -0.000           1.000       9.322e-04          1.1924
 153       2.607e-02      -3.716e-01      -2.672e-07          -0.000          -0.000           1.000       7.074e-04          1.7309
 154       1.118e-02      -3.716e-01      -8.133e-07           0.000           0.000           1.000       4.416e-04          2.9199
 155       2.615e-03      -3.716e-01      -4.842e-07           0.000           0.000           1.000       1.501e-04          7.0877
Strip 13
 156       2.391e-01      -3.273e-01       3.006e-09           0.000           0.000           1.000       1.585e-04          0.0683
 157       2.339e-01      -3.273e-01       5.410e-09          -0.000           0.000           1.000       4.661e-04          0.1209
 158       2.221e-01      -3.273e-01      -3.730e-09           0.000           0.000           1.000       7.467e-04          0.1825
 159       2.044e-01      -3.273e-01       2.181e-08          -0.000           0.000           1.000       9.839e-04          0.2513
 160       1.818e-01      -3.273e-01       3.641e-08           0.000           0.000           1.000       1.164e-03          0.3306
 161       1.555e-01      -3.273e-01       3.446e-07           0.000           0.000           1.000       1.276e-03          0.4255
 162       1.272e-01      -3.273e-01       9.930e-07           0.000           0.000           1.000       1.315e-03          0.5436
 163       9.851e-02      -3.273e-01      -1.336e-08          -0.000           0.000           1.000       1.276e-03          0.6962
 164       7.104e-02      -3.273e-01      -1.739e-06           0.000           0.000           1.000       1.164e-03          0.9104
 165       4.642e-02      -3.273e-01       2.241e-06          -0.000           0.000           1.000       9.839e-04          1.2291
 166       2.607e-02      -3.273e-01      -2.672e-07          -0.000           0.000           1.000       7.467e-04          1.7791
 167       1.118e-02      -3.273e-01      -8.133e-07           0.000           0.000           1.000       4.661e-04          2.9959
 168       2.615e-03      -3.273e-01      -4.842e-07           0.000           0.000           1.000       1.585e-04          7.2663
Strip 14
 169       2.391e-01      -2.808e-01       3.006e-09           0.000           0.000           1.000       1.657e-04          0.0710
 170       2.339e-01      -2.808e-01       5.410e-09          -0.000           0.000           1.000       4.875e-04          0.1258
 171       2.221e-01      -2.808e-01      -3.730e-09           0.000          -0.000           1.000       7.809e-04          0.1898
 172       2.044e-01      -2.808e-01       2.181e-08          -0.000           0.000           1.000       1.029e-03          0.2611
 173       1.818e-01      -2.808e-01       3.641e-08           0.000           0.000           1.000       1.217e-03          0.3429
 174       1.555e-01      -2.808e-01       3.446e-07           0.000           0.000           1.000       1.335e-03          0.4404
 175       1.272e-01      -2.808e-01       9.930e-07           0.000          -0.000           1.000       1.375e-03          0.5613
 176       9.851e-02      -2.808e-01      -1.336e-08          -0.000           0.000           1.000       1.335e-03          0.7170
 177       7.104e-02      -2.808e-01      -1.739e-06           0.000           0.000           1.000       1.217e-03          0.9349
 178       4.642e-02      -2.808e-01       2.241e-06          -0.000           0.000           1.000       1.029e-03          1.2590
 179       2.607e-02      -2.808e-01      -2.672e-07          -0.000           0.000           1.000       7.809e-04          1.8188
 180       1.118e-02      -2.808e-01      -8.133e-07           0.000           0.000           1.000       4.875e-04          3.0585
 181       2.615e-03      -2.808e-01      -4.842e-07           0.000           0.000           1.000       1.657e-04          7.4138
Strip 15
 182       2.391e-01      -2.324e-01       3.006e-09           0.000           0.000           1.000       1.718e-04          0.0733
 183       2.339e-01      -2.324e-01       5.410e-09          -0.000           0.000           1.000       5.055e-04          0.1297
 184       2.221e-01      -2.324e-01      -3.730e-09           0.000           0.000           1.000       8.098e-04          0.1956
 185       2.044e-01      -2.324e-01       2.181e-08          -0.000          -0.000           1.000       1.067e-03          0.2689
 186       1.818e-01      -2.324e-01       3.641e-08           0.000           0.000           1.000       1.262e-03          0.3527
 187       1.555e-01      -2.324e-01       3.446e-07           0.000           0.000           1.000       1.384e-03          0.4523
 188       1.272e-01      -2.324e-01       9.930e-07           0.000           0.000           1.000       1.426e-03          0.5754
 189       9.851e-02      -2.324e-01      -1.336e-08          -0.000          -0.000           1.000       1.384e-03          0.7335
 190       7.104e-02      -2.324e-01      -1.739e-06           0.000           0.000           1.000       1.262e-03          0.9544
 191       4.642e-02      -2.324e-01       2.241e-06          -0.000           0.000           1.000       1.067e-03          1.2829
 192       2.607e-02      -2.324e-01      -2.672e-07          -0.000           0.000           1.000       8.098e-04          1.8505
 193       1.118e-02      -2.324e-01      -8.133e-07           0.000          -0.000           1.000       5.055e-04          3.1089
 194       2.615e-03      -2.324e-01      -4.842e-07           0.000           0.000           1.000       1.718e-04          7.5327
Strip 16
 195       2.391e-01      -1.825e-01       3.006e-09           0.000           0.000           1.000       1.768e-04          0.0750
 196       2.339e-01      -1.825e-01       5.410e-09          -0.000           0.000           1.000       5.201e-04          0.1327
 197       2.221e-01      -1.825e-01      -3.730e-09           0.000          -0.000           1.000       8.331e-04          0.2001
 198       2.044e-01      -1.825e-01       2.181e-08          -0.000           0.000           1.000       1.098e-03          0.2748
 199       1.818e-01      -1.825e-01       3.641e-08           0.000           0.000           1.000       1.299e-03          0.3602
 200       1.555e-01      -1.825e-01       3.446e-07           0.000           0.000           1.000       1.424e-03          0.4614
 201       1.272e-01      -1.825e-01       9.930e-07           0.000           0.000           1.000       1.467e-03          0.5862
 202       9.851e-02      -1.825e-01      -1.336e-08          -0.000           0.000           1.000       1.424e-03          0.7462
 203       7.104e-02      -1.825e-01      -1.739e-06           0.000           0.000           1.000       1.299e-03          0.9694
 204       4.642e-02      -1.825e-01       2.241e-06          -0.000          -0.000           1.000       1.098e-03          1.3013
 205       2.607e-02      -1.825e-01      -2.672e-07          -0.000           0.000           1.000       8.331e-04          1.8752
 206       1.118e-02      -1.825e-01      -8.133e-07           0.000           0.000           1.000       5.201e-04          3.1480
 207       2.615e-03      -1.825e-01      -4.842e-07           0.000           0.000           1.000       1.768e-04          7.6252
Strip 17
 208       2.391e-01      -1.312e-01       3.006e-09           0.000           0.000           1.000       1.805e-04          0.0762
 209       2.339e-01      -1.312e-01       5.410e-09          -0.000           0.000           1.000       5.311e-04          0.1349
 210       2.221e-01      -1.312e-01      -3.730e-09           0.000           0.000           1.000       8.508e-04          0.2033
 211       2.044e-01      -1.312e-01       2.181e-08          -0.000           0.000           1.000       1.121e-03          0.2792
 212       1.818e-01      -1.312e-01       3.641e-08           0.000          -0.000           1.000       1.326e-03          0.3657
 213       1.555e-01      -1.312e-01       3.446e-07           0.000           0.000           1.000       1.454e-03          0.4681
 214       1.272e-01      -1.312e-01       9.930e-07           0.000           0.000           1.000       1.498e-03          0.5940
 215       9.851e-02      -1.312e-01      -1.336e-08          -0.000           0.000           1.000       1.454e-03          0.7554
 216       7.104e-02      -1.312e-01      -1.739e-06           0.000           0.000           1.000       1.326e-03          0.9803
 217       4.642e-02      -1.312e-01       2.241e-06          -0.000           0.000           1.000       1.121e-03          1.3148
 218       2.607e-02      -1.312e-01      -2.672e-07          -0.000          -0.000           1.000       8.508e-04          1.8932
 219       1.118e-02      -1.312e-01      -8.133e-07           0.000          -0.000           1.000       5.311e-04          3.1767
 220       2.615e-03      -1.312e-01      -4.842e-07           0.000           0.000           1.000       1.805e-04          7.6929
Strip 18
 221       2.391e-01      -7.910e-02       3.006e-09           0.000           0.000           1.000       1.830e-04          0.0771
 222       2.339e-01      -7.910e-02       5.410e-09          -0.000           0.000           1.000       5.385e-04          0.1363
 223       2.221e-01      -7.910e-02      -3.730e-09           0.000           0.000           1.000       8.626e-04          0.2054
 224       2.044e-01      -7.910e-02       2.181e-08          -0.000          -0.000           1.000       1.137e-03          0.2820
 225       1.818e-01      -7.910e-02       3.641e-08           0.000           0.000           1.000       1.345e-03          0.3692
 226       1.555e-01      -7.910e-02       3.446e-07           0.000           0.000           1.000       1.474e-03          0.4724
 227       1.272e-01      -7.910e-02       9.930e-07           0.000          -0.000           1.000       1.518e-03          0.5991
 228       9.851e-02      -7.910e-02      -1.336e-08          -0.000           0.000           1.000       1.474e-03          0.7613
 229       7.104e-02      -7.910e-02      -1.739e-06           0.000           0.000           1.000       1.345e-03          0.9874
 230       4.642e-02      -7.910e-02       2.241e-06          -0.000          -0.000           1.000       1.137e-03          1.3236
 231       2.607e-02      -7.910e-02      -2.672e-07          -0.000          -0.000           1.000       8.626e-04          1.9049
 232       1.118e-02      -7.910e-02      -8.133e-07           0.000           0.000           1.000       5.385e-04          3.1955
 233       2.615e-03      -7.910e-02      -4.842e-07           0.000           0.000           1.000       1.830e-04          7.7374
Strip 19
 234       2.391e-01      -2.643e-02       3.006e-09           0.000           0.000           1.000       1.843e-04          0.0775
 235       2.339e-01      -2.643e-02       5.410e-09          -0.000           0.000           1.000       5.422e-04          0.1370
 236       2.221e-01      -2.643e-02      -3.730e-09           0.000           0.000           1.000       8.685e-04          0.2065
 237       2.044e-01      -2.643e-02       2.181e-08          -0.000           0.000           1.000       1.144e-03          0.2834
 238       1.818e-01      -2.643e-02       3.641e-08           0.000           0.000           1.000       1.354e-03          0.3710
 239       1.555e-01      -2.643e-02       3.446e-07           0.000           0.000           1.000       1.484e-03          0.4745
 240       1.272e-01      -2.643e-02       9.930e-07           0.000           0.000           1.000       1.529e-03          0.6016
 241       9.851e-02      -2.643e-02      -1.336e-08          -0.000          -0.000           1.000       1.484e-03          0.7643
 242       7.104e-02      -2.643e-02      -1.739e-06           0.000           0.000           1.000       1.354e-03          0.9909
 243       4.642e-02      -2.643e-02       2.241e-06          -0.000           0.000           1.000       1.144e-03          1.3279
 244       2.607e-02      -2.643e-02      -2.672e-07          -0.000           0.000           1.000       8.685e-04          1.9107
 245       1.118e-02      -2.643e-02      -8.133e-07           0.000           0.000           1.000       5.422e-04          3.2048
 246       2.615e-03      -2.643e-02      -4.842e-07           0.000           0.000           1.000       1.843e-04          7.7593
Strip 20
 247       2.391e-01       2.643e-02       3.006e-09           0.000           0.000           1.000       1.843e-04          0.0775
 248       2.339e-01       2.643e-02       5.410e-09          -0.000           0.000           1.000       5.422e-04          0.1370
 249       2.221e-01       2.643e-02      -3.730e-09           0.000           0.000           1.000       8.685e-04          0.2065
 250       2.044e-01       2.643e-02       2.181e-08          -0.000          -0.000           1.000       1.144e-03          0.2834
 251       1.818e-01       2.643e-02       3.641e-08           0.000           0.000           1.000       1.354e-03          0.3710
 252       1.555e-01       2.643e-02       3.446e-07           0.000           0.000           1.000       1.484e-03          0.4745
 253       1.272e-01       2.643e-02       9.930e-07           0.000           0.000           1.000       1.529e-03          0.6016
 254       9.851e-02       2.643e-02      -1.336e-08          -0.000           0.000           1.000       1.484e-03          0.7643
 255       7.104e-02       2.643e-02      -1.739e-06           0.000           0.000           1.000       1.354e-03          0.9909
 256       4.642e-02       2.643e-02       2.241e-06          -0.000           0.000           1.000       1.144e-03          1.3279
 257       2.607e-02       2.643e-02      -2.672e-07          -0.000           0.000           1.000       8.685e-04          1.9107
 258       1.118e-02       2.643e-02      -8.133e-07           0.000           0.000           1.000       5.422e-04          3.2048
 259       2.615e-03       2.643e-02      -4.842e-07           0.000           0.000           1.000       1.843e-04          7.7593
Strip 21
 260       2.391e-01       7.910e-02       3.006e-09           0.000           0.000           1.000       1.830e-04          0.0771
 261       2.339e-01       7.910e-02       5.410e-09          -0.000          -0.000           1.000       5.385e-04          0.1363
 262       2.221e-01       7.910e-02      -3.730e-09           0.000           0.000           1.000       8.626e-04          0.2054
 263       2.044e-01       7.910e-02       2.181e-08          -0.000           0.000           1.000       1.137e-03          0.2820
 264       1.818e-01       7.910e-02       3.641e-08           0.000          -0.000           1.000       1.345e-03          0.3692
 265       1.555e-01       7.910e-02       3.446e-07           0.000           0.000           1.000       1.474e-03          0.4724
 266       1.272e-01       7.910e-02       9.930e-07           0.000           0.000           1.000       1.518e-03          0.5991
 267       9.851e-02       7.910e-02      -1.336e-08          -0.000          -0.000           1.000       1.474e-03          0.7613
 268       7.104e-02       7.910e-02      -1.739e-06           0.000           0.000           1.000       1.345e-03          0.9874
 269       4.642e-02       7.910e-02       2.241e-06          -0.000           0.000           1.000       1.137e-03          1.3236
 270       2.607e-02       7.910e-02      -2.672e-07          -0.000           0.000           1.000       8.626e-04          1.9049
 271       1.118e-02       7.910e-02      -8.133e-07           0.000          -0.000           1.000       5.385e-04          3.1955
 272       2.615e-03       7.910e-02      -4.842e-07           0.000           0.000           1.000       1.830e-04          7.7374
Strip 22
 273       2.391e-01       1.312e-01       3.006e-09           0.000           0.000           1.000       1.805e-04          0.0762
 274       2.339e-01       1.312e-01       5.410e-09          -0.000           0.000           1.000       5.311e-04          0.1349
 275       2.221e-01       1.312e-01      -3.730e-09           0.000          -0.000           1.000       8.508e-04          0.2033
 276       2.044e-01       1.312e-01       2.181e-08          -0.000           0.000           1.000       1.121e-03          0.2792
 277       1.818e-01       1.312e-01       3.641e-08           0.000          -0.000           1.000       1.326e-03          0.3657
 278       1.555e-01       1.312e-01       3.446e-07           0.000           0.000           1.000       1.454e-03          0.4681
 279       1.272e-01       1.312e-01       9.930e-07           0.000          -0.000           1.000       1.498e-03          0.5940
 280       9.851e-02       1.312e-01      -1.336e-08          -0.000           0.000           1.000       1.454e-03          0.7554
 281       7.104e-02       1.312e-01      -1.739e-06           0.000          -0.000           1.000       1.326e-03          0.9803
 282       4.642e-02       1.312e-01       2.241e-06          -0.000           0.000           1.000       1.121e-03          1.3148
 283       2.607e-02       1.312e-01      -2.672e-07          -0.000           0.000           1.000       8.508e-04          1.8932
 284       1.118e-02       1.312e-01      -8.133e-07           0.000           0.000           1.000       5.311e-04          3.1767
 285       2.615e-03       1.312e-01      -4.842e-07           0.000           0.000           1.000       1.805e-04          7.6929
Strip 23
 286       2.391e-01       1.825e-01       3.006e-09           0.000           0.000           1.000       1.768e-04          0.0750
 287       2.339e-01       1.825e-01       5.410e-09          -0.000           0.000           1.000       5.201e-04          0.1327
 288       2.221e-01       1.825e-01      -3.730e-09           0.000           0.000           1.000       8.331e-04          0.2001
 289       2.044e-01       1.825e-01       2.181e-08          -0.000          -0.000           1.000       1.098e-03          0.2748
 290       1.818e-01       1.825e-01       3.641e-08           0.000           0.000           1.000       1.299e-03          0.3602
 291       1.555e-01       1.825e-01       3.446e-07           0.000           0.000           1.000       1.424e-03          0.4614
 292       1.272e-01       1.825e-01       9.930e-07           0.000           0.000           1.000       1.467e-03          0.5862
 293       9.851e-02       1.825e-01      -1.336e-08          -0.000          -0.000           1.000       1.424e-03          0.7462
 294       7.104e-02       1.825e-01      -1.739e-06           0.000           0.000           1.000       1.299e-03          0.9694
 295       4.642e-02       1.825e-01       2.241e-06          -0.000           0.000           1.000       1.098e-03          1.3013
 296       2.607e-02       1.825e-01      -2.672e-07          -0.000           0.000           1.000       8.331e-04          1.8752
 297       1.118e-02       1.825e-01      -8.133e-07           0.000          -0.000           1.000       5.201e-04          3.1480
 298       2.615e-03       1.825e-01      -4.842e-07           0.000           0.000           1.000       1.768e-04          7.6252
Strip 24
 299       2.391e-01       2.324e-01       3.006e-09           0.000           0.000           1.000       1.718e-04          0.0733
 300       2.339e-01       2.324e-01       5.410e-09          -0.000           0.000           1.000       5.055e-04          0.1297
 301       2.221e-01       2.324e-01      -3.730e-09           0.000           0.000           1.000       8.098e-04          0.1956
 302       2.044e-01       2.324e-01       2.181e-08          -0.000           0.000           1.000       1.067e-03          0.2689
 303       1.818e-01       2.324e-01       3.641e-08           0.000          -0.000           1.000       1.262e-03          0.3527
 304       1.555e-01       2.324e-01       3.446e-07           0.000           0.000           1.000       1.384e-03          0.4523
 305       1.272e-01       2.324e-01       9.930e-07           0.000           0.000           1.000       1.426e-03          0.5754
 306       9.851e-02       2.324e-01      -1.336e-08          -0.000          -0.000           1.000       1.384e-03          0.7335
 307       7.104e-02       2.324e-01      -1.739e-06           0.000           0.000           1.000       1.262e-03          0.9544
 308       4.642e-02       2.324e-01       2.241e-06          -0.000           0.000           1.000       1.067e-03          1.2829
 309       2.607e-02       2.324e-01      -2.672e-07          -0.000           0.000           1.000       8.098e-04          1.8505
 310       1.118e-02       2.324e-01      -8.133e-07           0.000           0.000           1.000       5.055e-04          3.1089
 311       2.615e-03       2.324e-01      -4.842e-07           0.000           0.000           1.000       1.718e-04          7.5327
Strip 25
 312       2.391e-01       2.808e-01       3.006e-09           0.000           0.000           1.000       1.657e-04          0.0710
 313       2.339e-01       2.808e-01       5.410e-09          -0.000           0.000           1.000       4.875e-04          0.1258
 314       2.221e-01       2.808e-01      -3.730e-09           0.000          -0.000           1.000       7.809e-04          0.1898
 315       2.044e-01       2.808e-01       2.181e-08          -0.000           0.000           1.000       1.029e-03          0.2611
 316       1.818e-01       2.808e-01       3.641e-08           0.000           0.000           1.000       1.217e-03          0.3429
 317       1.555e-01       2.808e-01       3.446e-07           0.000           0.000           1.000       1.335e-03          0.4404
 318       1.272e-01       2.808e-01       9.930e-07           0.000          -0.000           1.000       1.375e-03          0.5613
 319       9.851e-02       2.808e-01      -1.336e-08          -0.000           0.000           1.000       1.335e-03          0.7170
 320       7.104e-02       2.808e-01      -1.739e-06           0.000           0.000           1.000       1.217e-03          0.9349
 321       4.642e-02       2.808e-01       2.241e-06          -0.000           0.000           1.000       1.029e-03          1.2590
 322       2.607e-02       2.808e-01      -2.672e-07          -0.000           0.000           1.000       7.809e-04          1.8188
 323       1.118e-02       2.808e-01      -8.133e-07           0.000           0.000           1.000       4.875e-04          3.0585
 324       2.615e-03       2.808e-01      -4.842e-07           0.000           0.000           1.000       1.657e-04          7.4138
Strip 26
 325       2.391e-01       3.273e-01       3.006e-09           0.000           0.000           1.000       1.585e-04          0.0683
 326       2.339e-01       3.273e-01       5.410e-09          -0.000           0.000           1.000       4.661e-04          0.1209
 327       2.221e-01       3.273e-01      -3.730e-09           0.000           0.000           1.000       7.467e-04          0.1825
 328       2.044e-01       3.273e-01       2.181e-08          -0.000           0.000           1.000       9.839e-04          0.2513
 329       1.818e-01       3.273e-01       3.641e-08           0.000           0.000           1.000       1.164e-03          0.3306
 330       1.555e-01       3.273e-01       3.446e-07           0.000           0.000           1.000       1.276e-03          0.4255
 331       1.272e-01       3.273e-01       9.930e-07           0.000           0.000           1.000       1.315e-03          0.5436
 332       9.851e-02       3.273e-01      -1.336e-08          -0.000           0.000           1.000       1.276e-03          0.6962
 333       7.104e-02       3.273e-01      -1.739e-06           0.000           0.000           1.000       1.164e-03          0.9104
 334       4.642e-02       3.273e-01       2.241e-06          -0.000          -0.000           1.000       9.839e-04          1.2291
 335       2.607e-02       3.273e-01      -2.672e-07          -0.000          -0.000           1.000       7.467e-04          1.7791
 336       1.118e-02       3.273e-01      -8.133e-07           0.000           0.000           1.000       4.661e-04          2.9959
 337       2.615e-03       3.273e-01      -4.842e-07           0.000           0.000           1.000       1.585e-04          7.2663
Strip 27
 338       2.391e-01       3.716e-01       3.006e-09           0.000           0.000           1.000       1.501e-04          0.0649
 339       2.339e-01       3.716e-01       5.410e-09          -0.000           0.000           1.000       4.416e-04          0.1149
 340       2.221e-01       3.716e-01      -3.730e-09           0.000           0.000           1.000       7.074e-04          0.1736
 341       2.044e-01       3.716e-01       2.181e-08          -0.000          -0.000           1.000       9.322e-04          0.2394
 342       1.818e-01       3.716e-01       3.641e-08           0.000           0.000           1.000       1.103e-03          0.3155
 343       1.555e-01       3.716e-01       3.446e-07           0.000           0.000           1.000       1.209e-03          0.4070
 344       1.272e-01       3.716e-01       9.930e-07           0.000           0.000           1.000       1.245e-03          0.5217
 345       9.851e-02       3.716e-01      -1.336e-08          -0.000           0.000           1.000       1.209e-03          0.6706
 346       7.104e-02       3.716e-01      -1.739e-06           0.000           0.000           1.000       1.103e-03          0.8802
 347       4.642e-02       3.716e-01       2.241e-06          -0.000           0.000           1.000       9.322e-04          1.1924
 348       2.607e-02       3.716e-01      -2.672e-07          -0.000           0.000           1.000       7.074e-04          1.7309
 349       1.118e-02       3.716e-01      -8.133e-07           0.000          -0.000           1.000       4.416e-04          2.9199
 350       2.615e-03       3.716e-01      -4.842e-07           0.000           0.000           1.000       1.501e-04          7.0877
Strip 28
 351       2.391e-01       4.133e-01       3.006e-09           0.000           0.000           1.000       1.407e-04          0.0609
 352       2.339e-01       4.133e-01       5.410e-09          -0.000           0.000           1.000       4.141e-04          0.1079
 353       2.221e-01       4.133e-01      -3.730e-09           0.000          -0.000           1.000       6.633e-04          0.1631
 354       2.044e-01       4.133e-01       2.181e-08          -0.000           0.000           1.000       8.740e-04          0.2252
 355       1.818e-01       4.133e-01       3.641e-08           0.000           0.000           1.000       1.034e-03          0.2974
 356       1.555e-01       4.133e-01       3.446e-07           0.000           0.000           1.000       1.134e-03          0.3848
 357       1.272e-01       4.133e-01       9.930e-07           0.000           0.000           1.000       1.168e-03          0.4952
 358       9.851e-02       4.133e-01      -1.336e-08          -0.000          -0.000           1.000       1.134e-03          0.6395
 359       7.104e-02       4.133e-01      -1.739e-06           0.000           0.000           1.000       1.034e-03          0.8437
 360       4.642e-02       4.133e-01       2.241e-06          -0.000           0.000           1.000       8.740e-04          1.1482
 361       2.607e-02       4.133e-01      -2.672e-07          -0.000           0.000           1.000       6.633e-04          1.6729
 362       1.118e-02       4.133e-01      -8.133e-07           0.000           0.000           1.000       4.141e-04          2.8293
 363       2.615e-03       4.133e-01      -4.842e-07           0.000           0.000           1.000       1.407e-04          6.8750
Strip 29
 364       2.391e-01       4.522e-01       3.006e-09           0.000           0.000           1.000       1.304e-04          0.0563
 365       2.339e-01       4.522e-01       5.410e-09          -0.000           0.000           1.000       3.837e-04          0.0998
 366       2.221e-01       4.522e-01      -3.730e-09           0.000          -0.000           1.000       6.147e-04          0.1510
 367       2.044e-01       4.522e-01       2.181e-08          -0.000           0.000           1.000       8.099e-04          0.2087
 368       1.818e-01       4.522e-01       3.641e-08           0.000          -0.000           1.000       9.581e-04          0.2762
 369       1.555e-01       4.522e-01       3.446e-07           0.000           0.000           1.000       1.051e-03          0.3586
 370       1.272e-01       4.522e-01       9.930e-07           0.000          -0.000           1.000       1.082e-03          0.4637
 371       9.851e-02       4.522e-01      -1.336e-08          -0.000           0.000           1.000       1.051e-03          0.6023
 372       7.104e-02       4.522e-01      -1.739e-06           0.000           0.000           1.000       9.581e-04          0.8000
 373       4.642e-02       4.522e-01       2.241e-06          -0.000           0.000           1.000       8.099e-04          1.0955
 374       2.607e-02       4.522e-01      -2.672e-07          -0.000           0.000           1.000       6.147e-04          1.6043
 375       1.118e-02       4.522e-01      -8.133e-07           0.000           0.000           1.000       3.837e-04          2.7225
 376       2.615e-03       4.522e-01      -4.842e-07           0.000           0.000           1.000       1.304e-04          6.6253
Strip 30
 377       2.391e-01       4.880e-01       3.006e-09           0.000           0.000           1.000       1.192e-04          0.0512
 378       2.339e-01       4.880e-01       5.410e-09          -0.000           0.000           1.000       3.507e-04          0.0908
 379       2.221e-01       4.880e-01      -3.730e-09           0.000           0.000           1.000       5.618e-04          0.1374
 380       2.044e-01       4.880e-01       2.181e-08          -0.000          -0.000           1.000       7.403e-04          0.1901
 381       1.818e-01       4.880e-01       3.641e-08           0.000           0.000           1.000       8.757e-04          0.2520
 382       1.555e-01       4.880e-01       3.446e-07           0.000           0.000           1.000       9.602e-04          0.3283
 383       1.272e-01       4.880e-01       9.930e-07           0.000           0.000           1.000       9.890e-04          0.4268
 384       9.851e-02       4.880e-01      -1.336e-08          -0.000          -0.000           1.000       9.602e-04          0.5584
 385       7.104e-02       4.880e-01      -1.739e-06           0.000           0.000           1.000       8.757e-04          0.7480
 386       4.642e-02       4.880e-01       2.241e-06          -0.000           0.000           1.000       7.403e-04          1.0329
 387       2.607e-02       4.880e-01      -2.672e-07          -0.000           0.000           1.000       5.618e-04          1.5235
 388       1.118e-02       4.880e-01      -8.133e-07           0.000          -0.000           1.000       3.507e-04          2.5978
 389       2.615e-03       4.880e-01      -4.842e-07           0.000           0.000           1.000       1.192e-04          6.3351
Strip 31
 390       2.391e-01       5.204e-01       3.006e-09           0.000           0.000           1.000       1.072e-04          0.0458
 391       2.339e-01       5.204e-01       5.410e-09          -0.000           0.000           1.000       3.153e-04          0.0811
 392       2.221e-01       5.204e-01      -3.730e-09           0.000           0.000           1.000       5.051e-04          0.1227
 393       2.044e-01       5.204e-01       2.181e-08          -0.000           0.000           1.000       6.656e-04          0.1697
 394       1.818e-01       5.204e-01       3.641e-08           0.000          -0.000           1.000       7.873e-04          0.2252
 395       1.555e-01       5.204e-01       3.446e-07           0.000           0.000           1.000       8.633e-04          0.2943
 396       1.272e-01       5.204e-01       9.930e-07           0.000          -0.000           1.000       8.892e-04          0.3846
 397       9.851e-02       5.204e-01      -1.336e-08          -0.000           0.000           1.000       8.633e-04          0.5072
 398       7.104e-02       5.204e-01      -1.739e-06           0.000           0.000           1.000       7.873e-04          0.6869
 399       4.642e-02       5.204e-01       2.241e-06          -0.000          -0.000           1.000       6.656e-04          0.9593
 400       2.607e-02       5.204e-01      -2.672e-07          -0.000          -0.000           1.000       5.051e-04          1.4290
 401       1.118e-02       5.204e-01      -8.133e-07           0.000           0.000           1.000       3.153e-04          2.4533
 402       2.615e-03       5.204e-01      -4.842e-07           0.000           0.000           1.000       1.072e-04          6.0006
Strip 32
 403       2.391e-01       5.493e-01       3.006e-09           0.000           0.000           1.000       9.442e-05          0.0401
 404       2.339e-01       5.493e-01       5.410e-09          -0.000           0.000           1.000       2.778e-04          0.0710
 405       2.221e-01       5.493e-01      -3.730e-09           0.000           0.000           1.000       4.450e-04          0.1072
 406       2.044e-01       5.493e-01       2.181e-08          -0.000          -0.000           1.000       5.863e-04          0.1482
 407       1.818e-01       5.493e-01       3.641e-08           0.000           0.000           1.000       6.936e-04          0.1966
 408       1.555e-01       5.493e-01       3.446e-07           0.000           0.000           1.000       7.605e-04          0.2573
 409       1.272e-01       5.493e-01       9.930e-07           0.000          -0.000           1.000       7.833e-04          0.3378
 410       9.851e-02       5.493e-01      -1.336e-08          -0.000           0.000           1.000       7.605e-04          0.4489
 411       7.104e-02       5.493e-01      -1.739e-06           0.000           0.000           1.000       6.936e-04          0.6157
 412       4.642e-02       5.493e-01       2.241e-06          -0.000           0.000           1.000       5.863e-04          0.8727
 413       2.607e-02       5.493e-01      -2.672e-07          -0.000           0.000           1.000       4.450e-04          1.3186
 414       1.118e-02       5.493e-01      -8.133e-07           0.000           0.000           1.000       2.778e-04          2.2867
 415       2.615e-03       5.493e-01      -4.842e-07           0.000           0.000           1.000       9.442e-05          5.6175
Strip 33
 416       2.391e-01       5.745e-01       3.006e-09           0.000           0.000           1.000       8.101e-05          0.0344
 417       2.339e-01       5.745e-01       5.410e-09          -0.000           0.000           1.000       2.383e-04          0.0608
 418       2.221e-01       5.745e-01      -3.730e-09           0.000           0.000           1.000       3.818e-04          0.0917
 419       2.044e-01       5.745e-01       2.181e-08          -0.000           0.000           1.000       5.030e-04          0.1263
 420       1.818e-01       5.745e-01       3.641e-08           0.000           0.000           1.000       5.951e-04          0.1671
 421       1.555e-01       5.745e-01       3.446e-07           0.000           0.000           1.000       6.525e-04          0.2187
 422       1.272e-01       5.745e-01       9.930e-07           0.000           0.000           1.000       6.721e-04          0.2877
 423       9.851e-02       5.745e-01      -1.336e-08          -0.000           0.000           1.000       6.525e-04          0.3846
 424       7.104e-02       5.745e-01      -1.739e-06           0.000           0.000           1.000       5.951e-04          0.5343
 425       4.642e-02       5.745e-01       2.241e-06          -0.000           0.000           1.000       5.030e-04          0.7714
 426       2.607e-02       5.745e-01      -2.672e-07          -0.000           0.000           1.000       3.818e-04          1.1895
 427       1.118e-02       5.745e-01      -8.133e-07           0.000           0.000           1.000       2.383e-04          2.0946
 428       2.615e-03       5.745e-01      -4.842e-07           0.000           0.000           1.000       8.101e-05          5.1807
Strip 34
 429       2.391e-01       5.957e-01       3.006e-09           0.000           0.000           1.000       6.705e-05          0.0289
 430       2.339e-01       5.957e-01       5.410e-09          -0.000           0.000           1.000       1.972e-04          0.0509
 431       2.221e-01       5.957e-01      -3.730e-09           0.000           0.000           1.000       3.160e-04          0.0763
 432       2.044e-01       5.957e-01       2.181e-08          -0.000           0.000           1.000       4.164e-04          0.1046
 433       1.818e-01       5.957e-01       3.641e-08           0.000           0.000           1.000       4.925e-04          0.1378
 434       1.555e-01       5.957e-01       3.446e-07           0.000           0.000           1.000       5.401e-04          0.1798
 435       1.272e-01       5.957e-01       9.930e-07           0.000           0.000           1.000       5.562e-04          0.2364
 436       9.851e-02       5.957e-01      -1.336e-08          -0.000           0.000           1.000       5.401e-04          0.3167
 437       7.104e-02       5.957e-01      -1.739e-06           0.000           0.000           1.000       4.925e-04          0.4444
 438       4.642e-02       5.957e-01       2.241e-06          -0.000           0.000           1.000       4.164e-04          0.6542
 439       2.607e-02       5.957e-01      -2.672e-07          -0.000           0.000           1.000       3.160e-04          1.0376
 440       1.118e-02       5.957e-01      -8.133e-07           0.000           0.000           1.000       1.972e-04          1.8724
 441       2.615e-03       5.957e-01      -4.842e-07           0.000           0.000           1.000       6.705e-05          4.6834
Strip 35
 442       2.391e-01       6.129e-01       3.006e-09           0.000           0.000           1.000       5.263e-05          0.0237
 443       2.339e-01       6.129e-01       5.410e-09          -0.000           0.000           1.000       1.548e-04          0.0414
 444       2.221e-01       6.129e-01      -3.730e-09           0.000           0.000           1.000       2.480e-04          0.0614
 445       2.044e-01       6.129e-01       2.181e-08          -0.000           0.000           1.000       3.268e-04          0.0834
 446       1.818e-01       6.129e-01       3.641e-08           0.000           0.000           1.000       3.866e-04          0.1093
 447       1.555e-01       6.129e-01       3.446e-07           0.000           0.000           1.000       4.239e-04          0.1420
 448       1.272e-01       6.129e-01       9.930e-07           0.000           0.000           1.000       4.366e-04          0.1862
 449       9.851e-02       6.129e-01      -1.336e-08          -0.000           0.000           1.000       4.239e-04          0.2487
 450       7.104e-02       6.129e-01      -1.739e-06           0.000           0.000           1.000       3.866e-04          0.3503
 451       4.642e-02       6.129e-01       2.241e-06          -0.000           0.000           1.000       3.268e-04          0.5228
 452       2.607e-02       6.129e-01      -2.672e-07          -0.000           0.000           1.000       2.480e-04          0.8580
 453       1.118e-02       6.129e-01      -8.133e-07           0.000           0.000           1.000       1.548e-04          1.6124
 454       2.615e-03       6.129e-01      -4.842e-07           0.000           0.000           1.000       5.263e-05          4.1159
Strip 36
 455       2.391e-01       6.258e-01       3.006e-09           0.000           0.000           1.000       3.785e-05          0.0187
 456       2.339e-01       6.258e-01       5.410e-09          -0.000           0.000           1.000       1.114e-04          0.0321
 457       2.221e-01       6.258e-01      -3.730e-09           0.000           0.000           1.000       1.784e-04          0.0469
 458       2.044e-01       6.258e-01       2.181e-08          -0.000           0.000           1.000       2.351e-04          0.0629
 459       1.818e-01       6.258e-01       3.641e-08           0.000           0.000           1.000       2.781e-04          0.0819
 460       1.555e-01       6.258e-01       3.446e-07           0.000           0.000           1.000       3.049e-04          0.1060
 461       1.272e-01       6.258e-01       9.930e-07           0.000           0.000           1.000       3.140e-04          0.1384
 462       9.851e-02       6.258e-01      -1.336e-08          -0.000           0.000           1.000       3.049e-04          0.1838
 463       7.104e-02       6.258e-01      -1.739e-06           0.000           0.000           1.000       2.781e-04          0.2582
 464       4.642e-02       6.258e-01       2.241e-06          -0.000           0.000           1.000       2.351e-04          0.3855
 465       2.607e-02       6.258e-01      -2.672e-07          -0.000          -0.000           1.000       1.784e-04          0.6492
 466       1.118e-02       6.258e-01      -8.133e-07           0.000          -0.000           1.000       1.114e-04          1.2998
 467       2.615e-03       6.258e-01      -4.842e-07           0.000           0.000           1.000       3.785e-05          3.4624
Strip 37
 468       2.391e-01       6.345e-01       3.006e-09           0.000           0.000           1.000       2.281e-05          0.0138
 469       2.339e-01       6.345e-01       5.410e-09          -0.000           0.000           1.000       6.712e-05          0.0228
 470       2.221e-01       6.345e-01      -3.730e-09           0.000           0.000           1.000       1.075e-04          0.0325
 471       2.044e-01       6.345e-01       2.181e-08          -0.000           0.000           1.000       1.417e-04          0.0431
 472       1.818e-01       6.345e-01       3.641e-08           0.000           0.000           1.000       1.676e-04          0.0558
 473       1.555e-01       6.345e-01       3.446e-07           0.000           0.000           1.000       1.838e-04          0.0720
 474       1.272e-01       6.345e-01       9.930e-07           0.000           0.000           1.000       1.893e-04          0.0937
 475       9.851e-02       6.345e-01      -1.336e-08          -0.000           0.000           1.000       1.838e-04          0.1238
 476       7.104e-02       6.345e-01      -1.739e-06           0.000           0.000           1.000       1.676e-04          0.1729
 477       4.642e-02       6.345e-01       2.241e-06          -0.000           0.000           1.000       1.417e-04          0.2557
 478       2.607e-02       6.345e-01      -2.672e-07          -0.000           0.000           1.000       1.075e-04          0.4291
 479       1.118e-02       6.345e-01      -8.133e-07           0.000           0.000           1.000       6.712e-05          0.9129
 480       2.615e-03       6.345e-01      -4.842e-07           0.000           0.000           1.000       2.281e-05          2.6941
Strip 38
 481       2.391e-01       6.389e-01       3.006e-09           0.000           0.000           1.000       7.622e-06          0.0088
 482       2.339e-01       6.389e-01       5.410e-09          -0.000           0.000           1.000       2.242e-05          0.0135
 483       2.221e-01       6.389e-01      -3.730e-09           0.000           0.000           1.000       3.592e-05          0.0188
 484       2.044e-01       6.389e-01       2.181e-08          -0.000           0.000           1.000       4.733e-05          0.0249
 485       1.818e-01       6.389e-01       3.641e-08           0.000           0.000           1.000       5.599e-05          0.0322
 486       1.555e-01       6.389e-01       3.446e-07           0.000           0.000           1.000       6.140e-05          0.0414
 487       1.272e-01       6.389e-01       9.930e-07           0.000           0.000           1.000       6.324e-05          0.0539
 488       9.851e-02       6.389e-01      -1.336e-08          -0.000           0.000           1.000       6.140e-05          0.0710
 489       7.104e-02       6.389e-01      -1.739e-06           0.000           0.000           1.000       5.599e-05          0.0989
 490       4.642e-02       6.389e-01       2.241e-06          -0.000           0.000           1.000       4.733e-05          0.1452
 491       2.607e-02       6.389e-01      -2.672e-07          -0.000           0.000           1.000       3.592e-05          0.2405
 492       1.118e-02       6.389e-01      -8.133e-07           0.000           0.000           1.000       2.242e-05          0.5027
 493       2.615e-03       6.389e-01      -4.842e-07           0.000           0.000           1.000       7.622e-06          1.7395










