xflr5 v6.50

Plane Name
T1-44.0 m/s-VLM1
QInf  =   44.000000 m/s
Alpha =   -1.000000
Beta  =    0.000°
Phi   =    0.000°
Ctrl  =    0.000
CL    =   -0.071800
Cy    =    0.000000
Cd    =    0.007226     ICd   =    0.000303     PCd   =    0.006923
Cl   = -1.22138e-18
Cm   =   0.0171087
ICn   =   -0.000000     PCn   =    0.000000 
XCP   =    0.057095     YCP   =   -0.000000     ZCP   =   -0.000000  
XNP   =    0.000000
Bending =   -3.380023

Main Wing
  y-span        Chord      Ai         Cl        PCd          ICd        CmGeom    CmAirf@chord/4    XTrtop    XTrBot      XCP       BM
   -0.6389     0.2400     0.398   -0.010640    0.006897    0.000074    0.002009   -0.000681     0.6700    0.6652    0.1860    0.0000
   -0.6345     0.2400     0.393   -0.018308    0.006901    0.000126    0.003478   -0.001129     0.6716    0.6636    0.1883   -0.0000
   -0.6258     0.2400     0.385   -0.026319    0.006906    0.000177    0.005117   -0.001493     0.6733    0.6619    0.1933   -0.0004
   -0.6129     0.2400     0.375   -0.034067    0.006911    0.000223    0.006831   -0.001715     0.6749    0.6602    0.1996   -0.0020
   -0.5957     0.2400     0.362   -0.041376    0.006916    0.000261    0.008576   -0.001798     0.6764    0.6586    0.2065   -0.0066
   -0.5745     0.2400     0.347   -0.048140    0.006920    0.000292    0.010301   -0.001764     0.6778    0.6572    0.2134   -0.0171
   -0.5493     0.2400     0.331   -0.054290    0.006924    0.000313    0.011955   -0.001647     0.6791    0.6559    0.2197   -0.0375
   -0.5204     0.2400     0.314   -0.059787    0.006926    0.000327    0.013494   -0.001483     0.6803    0.6548    0.2252   -0.0731
   -0.4880     0.2400     0.296   -0.064626    0.006925    0.000334    0.014885   -0.001301     0.6815    0.6538    0.2299   -0.1301
   -0.4522     0.2400     0.279   -0.068823    0.006925    0.000335    0.016113   -0.001123     0.6824    0.6530    0.2337   -0.2154
   -0.4133     0.2400     0.263   -0.072413    0.006925    0.000332    0.017172   -0.000961     0.6832    0.6523    0.2367   -0.3365
   -0.3716     0.2400     0.248   -0.075444    0.006925    0.000327    0.018069   -0.000822     0.6839    0.6517    0.2391   -0.5012
   -0.3273     0.2400     0.235   -0.077964    0.006924    0.000320    0.018815   -0.000706     0.6845    0.6512    0.2409   -0.7167
   -0.2808     0.2400     0.224   -0.080025    0.006924    0.000313    0.019423   -0.000613     0.6850    0.6508    0.2423   -0.9900
   -0.2324     0.2400     0.215   -0.081670    0.006924    0.000306    0.019907   -0.000541     0.6854    0.6505    0.2434   -1.3270
   -0.1825     0.2400     0.208   -0.082939    0.006924    0.000301    0.020279   -0.000486     0.6857    0.6502    0.2441   -1.7323
   -0.1312     0.2400     0.202   -0.083863    0.006924    0.000296    0.020549   -0.000447     0.6859    0.6500    0.2447   -2.2090
   -0.0791     0.2400     0.199   -0.084466    0.006924    0.000293    0.020724   -0.000422     0.6860    0.6499    0.2450   -2.7584
   -0.0264     0.2400     0.197   -0.084763    0.006924    0.000291    0.020811   -0.000410     0.6861    0.6499    0.2452   -3.3800
    0.0264     0.2400     0.197   -0.084763    0.006924    0.000291    0.020811   -0.000410     0.6861    0.6499    0.2452   -3.3800
    0.0791     0.2400     0.199   -0.084466    0.006924    0.000293    0.020724   -0.000422     0.6860    0.6499    0.2450   -2.7584
    0.1312     0.2400     0.202   -0.083863    0.006924    0.000296    0.020549   -0.000447     0.6859    0.6500    0.2447   -2.2090
    0.1825     0.2400     0.208   -0.082939    0.006924    0.000301    0.020279   -0.000486     0.6857    0.6502    0.2441   -1.7323
    0.2324     0.2400     0.215   -0.081670    0.006924    0.000306    0.019907   -0.000541     0.6854    0.6505    0.2434   -1.3270
    0.2808     0.2400     0.224   -0.080025    0.006924    0.000313    0.019423   -0.000613     0.6850    0.6508    0.2423   -0.9900
    0.3273     0.2400     0.235   -0.077964    0.006924    0.000320    0.018815   -0.000706     0.6845    0.6512    0.2409   -0.7167
    0.3716     0.2400     0.248   -0.075444    0.006925    0.000327    0.018069   -0.000822     0.6839    0.6517    0.2391   -0.5012
    0.4133     0.2400     0.263   -0.072413    0.006925    0.000332    0.017172   -0.000961     0.6832    0.6523    0.2367   -0.3365
    0.4522     0.2400     0.279   -0.068823    0.006925    0.000335    0.016113   -0.001123     0.6824    0.6530    0.2337   -0.2154
    0.4880     0.2400     0.296   -0.064626    0.006925    0.000334    0.014885   -0.001301     0.6815    0.6538    0.2299   -0.1301
    0.5204     0.2400     0.314   -0.059787    0.006926    0.000327    0.013494   -0.001483     0.6803    0.6548    0.2252   -0.0731
    0.5493     0.2400     0.331   -0.054290    0.006924    0.000313    0.011955   -0.001647     0.6791    0.6559    0.2197   -0.0375
    0.5745     0.2400     0.347   -0.048140    0.006920    0.000292    0.010301   -0.001764     0.6778    0.6572    0.2134   -0.0171
    0.5957     0.2400     0.362   -0.041376    0.006916    0.000261    0.008576   -0.001798     0.6764    0.6586    0.2065   -0.0066
    0.6129     0.2400     0.375   -0.034067    0.006911    0.000223    0.006831   -0.001715     0.6749    0.6602    0.1996   -0.0020
    0.6258     0.2400     0.385   -0.026319    0.006906    0.000177    0.005117   -0.001493     0.6733    0.6619    0.1933   -0.0004
    0.6345     0.2400     0.393   -0.018308    0.006901    0.000126    0.003478   -0.001129     0.6716    0.6636    0.1883   -0.0000
    0.6389     0.2400     0.398   -0.010640    0.006897    0.000074    0.002009   -0.000681     0.6700    0.6652    0.1860    0.0000


Main Wing Cp Coefficients
 Panel     CtrlPt.x        CtrlPt.y        CtrlPt.z       Nx      Ny       Nz        Area       Cp
Main WingCp Coefficients
Strip 1
   0       2.391e-01      -6.389e-01       3.006e-09           0.000           0.000           1.000       7.622e-06         -0.0008
   1       2.339e-01      -6.389e-01       5.410e-09          -0.000           0.000           1.000       2.242e-05         -0.0013
   2       2.221e-01      -6.389e-01      -3.730e-09           0.000           0.000           1.000       3.592e-05         -0.0018
   3       2.044e-01      -6.389e-01       2.181e-08          -0.000           0.000           1.000       4.733e-05         -0.0023
   4       1.818e-01      -6.389e-01       3.641e-08           0.000           0.000           1.000       5.599e-05         -0.0030
   5       1.555e-01      -6.389e-01       3.446e-07           0.000           0.000           1.000       6.140e-05         -0.0038
   6       1.272e-01      -6.389e-01       9.930e-07           0.000           0.000           1.000       6.324e-05         -0.0049
   7       9.851e-02      -6.389e-01      -1.336e-08          -0.000           0.000           1.000       6.140e-05         -0.0070
   8       7.104e-02      -6.389e-01      -1.739e-06           0.000           0.000           1.000       5.599e-05         -0.0088
   9       4.642e-02      -6.389e-01       2.241e-06          -0.000           0.000           1.000       4.733e-05         -0.0136
  10       2.607e-02      -6.389e-01      -2.672e-07          -0.000           0.000           1.000       3.592e-05         -0.0225
  11       1.118e-02      -6.389e-01      -8.133e-07           0.000           0.000           1.000       2.242e-05         -0.0470
  12       2.615e-03      -6.389e-01      -4.842e-07           0.000           0.000           1.000       7.622e-06         -0.1615
Strip 2
  13       2.391e-01      -6.345e-01       3.006e-09           0.000           0.000           1.000       2.281e-05         -0.0013
  14       2.339e-01      -6.345e-01       5.410e-09          -0.000           0.000           1.000       6.712e-05         -0.0021
  15       2.221e-01      -6.345e-01      -3.730e-09           0.000           0.000           1.000       1.075e-04         -0.0030
  16       2.044e-01      -6.345e-01       2.181e-08          -0.000           0.000           1.000       1.417e-04         -0.0040
  17       1.818e-01      -6.345e-01       3.641e-08           0.000           0.000           1.000       1.676e-04         -0.0052
  18       1.555e-01      -6.345e-01       3.446e-07           0.000           0.000           1.000       1.838e-04         -0.0066
  19       1.272e-01      -6.345e-01       9.930e-07           0.000           0.000           1.000       1.893e-04         -0.0085
  20       9.851e-02      -6.345e-01      -1.336e-08          -0.000           0.000           1.000       1.838e-04         -0.0122
  21       7.104e-02      -6.345e-01      -1.739e-06           0.000           0.000           1.000       1.676e-04         -0.0154
  22       4.642e-02      -6.345e-01       2.241e-06          -0.000           0.000           1.000       1.417e-04         -0.0240
  23       2.607e-02      -6.345e-01      -2.672e-07          -0.000           0.000           1.000       1.075e-04         -0.0402
  24       1.118e-02      -6.345e-01      -8.133e-07           0.000           0.000           1.000       6.712e-05         -0.0853
  25       2.615e-03      -6.345e-01      -4.842e-07           0.000           0.000           1.000       2.281e-05         -0.2502
Strip 3
  26       2.391e-01      -6.258e-01       3.006e-09           0.000           0.000           1.000       3.785e-05         -0.0017
  27       2.339e-01      -6.258e-01       5.410e-09          -0.000           0.000           1.000       1.114e-04         -0.0030
  28       2.221e-01      -6.258e-01      -3.730e-09           0.000           0.000           1.000       1.784e-04         -0.0044
  29       2.044e-01      -6.258e-01       2.181e-08          -0.000           0.000           1.000       2.351e-04         -0.0059
  30       1.818e-01      -6.258e-01       3.641e-08           0.000           0.000           1.000       2.781e-04         -0.0077
  31       1.555e-01      -6.258e-01       3.446e-07           0.000           0.000           1.000       3.049e-04         -0.0098
  32       1.272e-01      -6.258e-01       9.930e-07           0.000           0.000           1.000       3.140e-04         -0.0126
  33       9.851e-02      -6.258e-01      -1.336e-08          -0.000           0.000           1.000       3.049e-04         -0.0180
  34       7.104e-02      -6.258e-01      -1.739e-06           0.000           0.000           1.000       2.781e-04         -0.0232
  35       4.642e-02      -6.258e-01       2.241e-06          -0.000           0.000           1.000       2.351e-04         -0.0361
  36       2.607e-02      -6.258e-01      -2.672e-07          -0.000           0.000           1.000       1.784e-04         -0.0607
  37       1.118e-02      -6.258e-01      -8.133e-07           0.000           0.000           1.000       1.114e-04         -0.1213
  38       2.615e-03      -6.258e-01      -4.842e-07           0.000           0.000           1.000       3.785e-05         -0.3218
Strip 4
  39       2.391e-01      -6.129e-01       3.006e-09           0.000           0.000           1.000       5.263e-05         -0.0022
  40       2.339e-01      -6.129e-01       5.410e-09          -0.000           0.000           1.000       1.548e-04         -0.0039
  41       2.221e-01      -6.129e-01      -3.730e-09           0.000          -0.000           1.000       2.480e-04         -0.0057
  42       2.044e-01      -6.129e-01       2.181e-08          -0.000           0.000           1.000       3.268e-04         -0.0078
  43       1.818e-01      -6.129e-01       3.641e-08           0.000          -0.000           1.000       3.866e-04         -0.0102
  44       1.555e-01      -6.129e-01       3.446e-07           0.000           0.000           1.000       4.239e-04         -0.0131
  45       1.272e-01      -6.129e-01       9.930e-07           0.000           0.000           1.000       4.366e-04         -0.0170
  46       9.851e-02      -6.129e-01      -1.336e-08          -0.000           0.000           1.000       4.239e-04         -0.0241
  47       7.104e-02      -6.129e-01      -1.739e-06           0.000           0.000           1.000       3.866e-04         -0.0317
  48       4.642e-02      -6.129e-01       2.241e-06          -0.000           0.000           1.000       3.268e-04         -0.0489
  49       2.607e-02      -6.129e-01      -2.672e-07          -0.000           0.000           1.000       2.480e-04         -0.0802
  50       1.118e-02      -6.129e-01      -8.133e-07           0.000           0.000           1.000       1.548e-04         -0.1505
  51       2.615e-03      -6.129e-01      -4.842e-07           0.000           0.000           1.000       5.263e-05         -0.3827
Strip 5
  52       2.391e-01      -5.957e-01       3.006e-09           0.000           0.000           1.000       6.705e-05         -0.0027
  53       2.339e-01      -5.957e-01       5.410e-09          -0.000           0.000           1.000       1.972e-04         -0.0048
  54       2.221e-01      -5.957e-01      -3.730e-09           0.000           0.000           1.000       3.160e-04         -0.0071
  55       2.044e-01      -5.957e-01       2.181e-08          -0.000           0.000           1.000       4.164e-04         -0.0098
  56       1.818e-01      -5.957e-01       3.641e-08           0.000          -0.000           1.000       4.925e-04         -0.0129
  57       1.555e-01      -5.957e-01       3.446e-07           0.000           0.000           1.000       5.401e-04         -0.0166
  58       1.272e-01      -5.957e-01       9.930e-07           0.000          -0.000           1.000       5.562e-04         -0.0217
  59       9.851e-02      -5.957e-01      -1.336e-08          -0.000           0.000           1.000       5.401e-04         -0.0304
  60       7.104e-02      -5.957e-01      -1.739e-06           0.000           0.000           1.000       4.925e-04         -0.0405
  61       4.642e-02      -5.957e-01       2.241e-06          -0.000           0.000           1.000       4.164e-04         -0.0611
  62       2.607e-02      -5.957e-01      -2.672e-07          -0.000           0.000           1.000       3.160e-04         -0.0969
  63       1.118e-02      -5.957e-01      -8.133e-07           0.000           0.000           1.000       1.972e-04         -0.1747
  64       2.615e-03      -5.957e-01      -4.842e-07           0.000           0.000           1.000       6.705e-05         -0.4356
Strip 6
  65       2.391e-01      -5.745e-01       3.006e-09           0.000           0.000           1.000       8.101e-05         -0.0032
  66       2.339e-01      -5.745e-01       5.410e-09          -0.000           0.000           1.000       2.383e-04         -0.0057
  67       2.221e-01      -5.745e-01      -3.730e-09           0.000           0.000           1.000       3.818e-04         -0.0085
  68       2.044e-01      -5.745e-01       2.181e-08          -0.000           0.000           1.000       5.030e-04         -0.0118
  69       1.818e-01      -5.745e-01       3.641e-08           0.000           0.000           1.000       5.951e-04         -0.0156
  70       1.555e-01      -5.745e-01       3.446e-07           0.000           0.000           1.000       6.525e-04         -0.0202
  71       1.272e-01      -5.745e-01       9.930e-07           0.000           0.000           1.000       6.721e-04         -0.0265
  72       9.851e-02      -5.745e-01      -1.336e-08          -0.000           0.000           1.000       6.525e-04         -0.0368
  73       7.104e-02      -5.745e-01      -1.739e-06           0.000           0.000           1.000       5.951e-04         -0.0489
  74       4.642e-02      -5.745e-01       2.241e-06          -0.000           0.000           1.000       5.030e-04         -0.0720
  75       2.607e-02      -5.745e-01      -2.672e-07          -0.000           0.000           1.000       3.818e-04         -0.1111
  76       1.118e-02      -5.745e-01      -8.133e-07           0.000           0.000           1.000       2.383e-04         -0.1954
  77       2.615e-03      -5.745e-01      -4.842e-07           0.000           0.000           1.000       8.101e-05         -0.4819
Strip 7
  78       2.391e-01      -5.493e-01       3.006e-09           0.000           0.000           1.000       9.442e-05         -0.0037
  79       2.339e-01      -5.493e-01       5.410e-09          -0.000           0.000           1.000       2.778e-04         -0.0066
  80       2.221e-01      -5.493e-01      -3.730e-09           0.000          -0.000           1.000       4.450e-04         -0.0100
  81       2.044e-01      -5.493e-01       2.181e-08          -0.000           0.000           1.000       5.863e-04         -0.0138
  82       1.818e-01      -5.493e-01       3.641e-08           0.000           0.000           1.000       6.936e-04         -0.0184
  83       1.555e-01      -5.493e-01       3.446e-07           0.000           0.000           1.000       7.605e-04         -0.0238
  84       1.272e-01      -5.493e-01       9.930e-07           0.000          -0.000           1.000       7.833e-04         -0.0311
  85       9.851e-02      -5.493e-01      -1.336e-08          -0.000           0.000           1.000       7.605e-04         -0.0428
  86       7.104e-02      -5.493e-01      -1.739e-06           0.000           0.000           1.000       6.936e-04         -0.0564
  87       4.642e-02      -5.493e-01       2.241e-06          -0.000           0.000           1.000       5.863e-04         -0.0814
  88       2.607e-02      -5.493e-01      -2.672e-07          -0.000           0.000           1.000       4.450e-04         -0.1231
  89       1.118e-02      -5.493e-01      -8.133e-07           0.000           0.000           1.000       2.778e-04         -0.2133
  90       2.615e-03      -5.493e-01      -4.842e-07           0.000           0.000           1.000       9.442e-05         -0.5226
Strip 8
  91       2.391e-01      -5.204e-01       3.006e-09           0.000           0.000           1.000       1.072e-04         -0.0042
  92       2.339e-01      -5.204e-01       5.410e-09          -0.000           0.000           1.000       3.153e-04         -0.0076
  93       2.221e-01      -5.204e-01      -3.730e-09           0.000           0.000           1.000       5.051e-04         -0.0114
  94       2.044e-01      -5.204e-01       2.181e-08          -0.000          -0.000           1.000       6.656e-04         -0.0158
  95       1.818e-01      -5.204e-01       3.641e-08           0.000           0.000           1.000       7.873e-04         -0.0210
  96       1.555e-01      -5.204e-01       3.446e-07           0.000           0.000           1.000       8.633e-04         -0.0273
  97       1.272e-01      -5.204e-01       9.930e-07           0.000           0.000           1.000       8.892e-04         -0.0355
  98       9.851e-02      -5.204e-01      -1.336e-08          -0.000          -0.000           1.000       8.633e-04         -0.0482
  99       7.104e-02      -5.204e-01      -1.739e-06           0.000           0.000           1.000       7.873e-04         -0.0631
 100       4.642e-02      -5.204e-01       2.241e-06          -0.000          -0.000           1.000       6.656e-04         -0.0895
 101       2.607e-02      -5.204e-01      -2.672e-07          -0.000           0.000           1.000       5.051e-04         -0.1334
 102       1.118e-02      -5.204e-01      -8.133e-07           0.000           0.000           1.000       3.153e-04         -0.2288
 103       2.615e-03      -5.204e-01      -4.842e-07           0.000           0.000           1.000       1.072e-04         -0.5583
Strip 9
 104       2.391e-01      -4.880e-01       3.006e-09           0.000           0.000           1.000       1.192e-04         -0.0048
 105       2.339e-01      -4.880e-01       5.410e-09          -0.000           0.000           1.000       3.507e-04         -0.0085
 106       2.221e-01      -4.880e-01      -3.730e-09           0.000           0.000           1.000       5.618e-04         -0.0128
 107       2.044e-01      -4.880e-01       2.181e-08          -0.000           0.000           1.000       7.403e-04         -0.0177
 108       1.818e-01      -4.880e-01       3.641e-08           0.000          -0.000           1.000       8.757e-04         -0.0235
 109       1.555e-01      -4.880e-01       3.446e-07           0.000          -0.000           1.000       9.602e-04         -0.0305
 110       1.272e-01      -4.880e-01       9.930e-07           0.000           0.000           1.000       9.890e-04         -0.0394
 111       9.851e-02      -4.880e-01      -1.336e-08          -0.000          -0.000           1.000       9.602e-04         -0.0530
 112       7.104e-02      -4.880e-01      -1.739e-06           0.000           0.000           1.000       8.757e-04         -0.0688
 113       4.642e-02      -4.880e-01       2.241e-06          -0.000          -0.000           1.000       7.403e-04         -0.0964
 114       2.607e-02      -4.880e-01      -2.672e-07          -0.000          -0.000           1.000       5.618e-04         -0.1422
 115       1.118e-02      -4.880e-01      -8.133e-07           0.000          -0.000           1.000       3.507e-04         -0.2423
 116       2.615e-03      -4.880e-01      -4.842e-07           0.000           0.000           1.000       1.192e-04         -0.5894
Strip 10
 117       2.391e-01      -4.522e-01       3.006e-09           0.000           0.000           1.000       1.304e-04         -0.0052
 118       2.339e-01      -4.522e-01       5.410e-09          -0.000           0.000           1.000       3.837e-04         -0.0093
 119       2.221e-01      -4.522e-01      -3.730e-09           0.000          -0.000           1.000       6.147e-04         -0.0141
 120       2.044e-01      -4.522e-01       2.181e-08          -0.000          -0.000           1.000       8.099e-04         -0.0195
 121       1.818e-01      -4.522e-01       3.641e-08           0.000           0.000           1.000       9.581e-04         -0.0258
 122       1.555e-01      -4.522e-01       3.446e-07           0.000           0.000           1.000       1.051e-03         -0.0333
 123       1.272e-01      -4.522e-01       9.930e-07           0.000           0.000           1.000       1.082e-03         -0.0429
 124       9.851e-02      -4.522e-01      -1.336e-08          -0.000           0.000           1.000       1.051e-03         -0.0571
 125       7.104e-02      -4.522e-01      -1.739e-06           0.000           0.000           1.000       9.581e-04         -0.0736
 126       4.642e-02      -4.522e-01       2.241e-06          -0.000           0.000           1.000       8.099e-04         -0.1022
 127       2.607e-02      -4.522e-01      -2.672e-07          -0.000           0.000           1.000       6.147e-04         -0.1497
 128       1.118e-02      -4.522e-01      -8.133e-07           0.000          -0.000           1.000       3.837e-04         -0.2539
 129       2.615e-03      -4.522e-01      -4.842e-07           0.000           0.000           1.000       1.304e-04         -0.6165
Strip 11
 130       2.391e-01      -4.133e-01       3.006e-09           0.000           0.000           1.000       1.407e-04         -0.0057
 131       2.339e-01      -4.133e-01       5.410e-09          -0.000           0.000           1.000       4.141e-04         -0.0101
 132       2.221e-01      -4.133e-01      -3.730e-09           0.000          -0.000           1.000       6.633e-04         -0.0152
 133       2.044e-01      -4.133e-01       2.181e-08          -0.000           0.000           1.000       8.740e-04         -0.0210
 134       1.818e-01      -4.133e-01       3.641e-08           0.000           0.000           1.000       1.034e-03         -0.0277
 135       1.555e-01      -4.133e-01       3.446e-07           0.000           0.000           1.000       1.134e-03         -0.0357
 136       1.272e-01      -4.133e-01       9.930e-07           0.000           0.000           1.000       1.168e-03         -0.0458
 137       9.851e-02      -4.133e-01      -1.336e-08          -0.000           0.000           1.000       1.134e-03         -0.0605
 138       7.104e-02      -4.133e-01      -1.739e-06           0.000           0.000           1.000       1.034e-03         -0.0777
 139       4.642e-02      -4.133e-01       2.241e-06          -0.000           0.000           1.000       8.740e-04         -0.1071
 140       2.607e-02      -4.133e-01      -2.672e-07          -0.000           0.000           1.000       6.633e-04         -0.1561
 141       1.118e-02      -4.133e-01      -8.133e-07           0.000           0.000           1.000       4.141e-04         -0.2639
 142       2.615e-03      -4.133e-01      -4.842e-07           0.000           0.000           1.000       1.407e-04         -0.6398
Strip 12
 143       2.391e-01      -3.716e-01       3.006e-09           0.000           0.000           1.000       1.501e-04         -0.0060
 144       2.339e-01      -3.716e-01       5.410e-09          -0.000           0.000           1.000       4.416e-04         -0.0107
 145       2.221e-01      -3.716e-01      -3.730e-09           0.000           0.000           1.000       7.074e-04         -0.0162
 146       2.044e-01      -3.716e-01       2.181e-08          -0.000          -0.000           1.000       9.322e-04         -0.0223
 147       1.818e-01      -3.716e-01       3.641e-08           0.000           0.000           1.000       1.103e-03         -0.0294
 148       1.555e-01      -3.716e-01       3.446e-07           0.000           0.000           1.000       1.209e-03         -0.0378
 149       1.272e-01      -3.716e-01       9.930e-07           0.000          -0.000           1.000       1.245e-03         -0.0483
 150       9.851e-02      -3.716e-01      -1.336e-08          -0.000           0.000           1.000       1.209e-03         -0.0634
 151       7.104e-02      -3.716e-01      -1.739e-06           0.000           0.000           1.000       1.103e-03         -0.0811
 152       4.642e-02      -3.716e-01       2.241e-06          -0.000          -0.000           1.000       9.322e-04         -0.1112
 153       2.607e-02      -3.716e-01      -2.672e-07          -0.000          -0.000           1.000       7.074e-04         -0.1615
 154       1.118e-02      -3.716e-01      -8.133e-07           0.000           0.000           1.000       4.416e-04         -0.2723
 155       2.615e-03      -3.716e-01      -4.842e-07           0.000           0.000           1.000       1.501e-04         -0.6596
Strip 13
 156       2.391e-01      -3.273e-01       3.006e-09           0.000           0.000           1.000       1.585e-04         -0.0063
 157       2.339e-01      -3.273e-01       5.410e-09          -0.000           0.000           1.000       4.661e-04         -0.0113
 158       2.221e-01      -3.273e-01      -3.730e-09           0.000           0.000           1.000       7.467e-04         -0.0170
 159       2.044e-01      -3.273e-01       2.181e-08          -0.000           0.000           1.000       9.839e-04         -0.0234
 160       1.818e-01      -3.273e-01       3.641e-08           0.000           0.000           1.000       1.164e-03         -0.0308
 161       1.555e-01      -3.273e-01       3.446e-07           0.000           0.000           1.000       1.276e-03         -0.0395
 162       1.272e-01      -3.273e-01       9.930e-07           0.000           0.000           1.000       1.315e-03         -0.0503
 163       9.851e-02      -3.273e-01      -1.336e-08          -0.000           0.000           1.000       1.276e-03         -0.0658
 164       7.104e-02      -3.273e-01      -1.739e-06           0.000           0.000           1.000       1.164e-03         -0.0839
 165       4.642e-02      -3.273e-01       2.241e-06          -0.000           0.000           1.000       9.839e-04         -0.1146
 166       2.607e-02      -3.273e-01      -2.672e-07          -0.000           0.000           1.000       7.467e-04         -0.1660
 167       1.118e-02      -3.273e-01      -8.133e-07           0.000           0.000           1.000       4.661e-04         -0.2794
 168       2.615e-03      -3.273e-01      -4.842e-07           0.000           0.000           1.000       1.585e-04         -0.6762
Strip 14
 169       2.391e-01      -2.808e-01       3.006e-09           0.000           0.000           1.000       1.657e-04         -0.0066
 170       2.339e-01      -2.808e-01       5.410e-09          -0.000           0.000           1.000       4.875e-04         -0.0117
 171       2.221e-01      -2.808e-01      -3.730e-09           0.000          -0.000           1.000       7.809e-04         -0.0177
 172       2.044e-01      -2.808e-01       2.181e-08          -0.000           0.000           1.000       1.029e-03         -0.0243
 173       1.818e-01      -2.808e-01       3.641e-08           0.000           0.000           1.000       1.217e-03         -0.0320
 174       1.555e-01      -2.808e-01       3.446e-07           0.000           0.000           1.000       1.335e-03         -0.0409
 175       1.272e-01      -2.808e-01       9.930e-07           0.000          -0.000           1.000       1.375e-03         -0.0520
 176       9.851e-02      -2.808e-01      -1.336e-08          -0.000           0.000           1.000       1.335e-03         -0.0677
 177       7.104e-02      -2.808e-01      -1.739e-06           0.000           0.000           1.000       1.217e-03         -0.0862
 178       4.642e-02      -2.808e-01       2.241e-06          -0.000           0.000           1.000       1.029e-03         -0.1174
 179       2.607e-02      -2.808e-01      -2.672e-07          -0.000           0.000           1.000       7.809e-04         -0.1697
 180       1.118e-02      -2.808e-01      -8.133e-07           0.000           0.000           1.000       4.875e-04         -0.2852
 181       2.615e-03      -2.808e-01      -4.842e-07           0.000           0.000           1.000       1.657e-04         -0.6899
Strip 15
 182       2.391e-01      -2.324e-01       3.006e-09           0.000           0.000           1.000       1.718e-04         -0.0068
 183       2.339e-01      -2.324e-01       5.410e-09          -0.000           0.000           1.000       5.055e-04         -0.0121
 184       2.221e-01      -2.324e-01      -3.730e-09           0.000           0.000           1.000       8.098e-04         -0.0182
 185       2.044e-01      -2.324e-01       2.181e-08          -0.000          -0.000           1.000       1.067e-03         -0.0251
 186       1.818e-01      -2.324e-01       3.641e-08           0.000           0.000           1.000       1.262e-03         -0.0329
 187       1.555e-01      -2.324e-01       3.446e-07           0.000           0.000           1.000       1.384e-03         -0.0420
 188       1.272e-01      -2.324e-01       9.930e-07           0.000           0.000           1.000       1.426e-03         -0.0533
 189       9.851e-02      -2.324e-01      -1.336e-08          -0.000          -0.000           1.000       1.384e-03         -0.0693
 190       7.104e-02      -2.324e-01      -1.739e-06           0.000           0.000           1.000       1.262e-03         -0.0880
 191       4.642e-02      -2.324e-01       2.241e-06          -0.000           0.000           1.000       1.067e-03         -0.1197
 192       2.607e-02      -2.324e-01      -2.672e-07          -0.000           0.000           1.000       8.098e-04         -0.1727
 193       1.118e-02      -2.324e-01      -8.133e-07           0.000          -0.000           1.000       5.055e-04         -0.2899
 194       2.615e-03      -2.324e-01      -4.842e-07           0.000           0.000           1.000       1.718e-04         -0.7010
Strip 16
 195       2.391e-01      -1.825e-01       3.006e-09           0.000           0.000           1.000       1.768e-04         -0.0070
 196       2.339e-01      -1.825e-01       5.410e-09          -0.000           0.000           1.000       5.201e-04         -0.0124
 197       2.221e-01      -1.825e-01      -3.730e-09           0.000          -0.000           1.000       8.331e-04         -0.0186
 198       2.044e-01      -1.825e-01       2.181e-08          -0.000           0.000           1.000       1.098e-03         -0.0256
 199       1.818e-01      -1.825e-01       3.641e-08           0.000           0.000           1.000       1.299e-03         -0.0336
 200       1.555e-01      -1.825e-01       3.446e-07           0.000           0.000           1.000       1.424e-03         -0.0429
 201       1.272e-01      -1.825e-01       9.930e-07           0.000           0.000           1.000       1.467e-03         -0.0543
 202       9.851e-02      -1.825e-01      -1.336e-08          -0.000           0.000           1.000       1.424e-03         -0.0705
 203       7.104e-02      -1.825e-01      -1.739e-06           0.000           0.000           1.000       1.299e-03         -0.0894
 204       4.642e-02      -1.825e-01       2.241e-06          -0.000          -0.000           1.000       1.098e-03         -0.1214
 205       2.607e-02      -1.825e-01      -2.672e-07          -0.000           0.000           1.000       8.331e-04         -0.1750
 206       1.118e-02      -1.825e-01      -8.133e-07           0.000           0.000           1.000       5.201e-04         -0.2935
 207       2.615e-03      -1.825e-01      -4.842e-07           0.000           0.000           1.000       1.768e-04         -0.7096
Strip 17
 208       2.391e-01      -1.312e-01       3.006e-09           0.000           0.000           1.000       1.805e-04         -0.0071
 209       2.339e-01      -1.312e-01       5.410e-09          -0.000           0.000           1.000       5.311e-04         -0.0126
 210       2.221e-01      -1.312e-01      -3.730e-09           0.000           0.000           1.000       8.508e-04         -0.0189
 211       2.044e-01      -1.312e-01       2.181e-08          -0.000           0.000           1.000       1.121e-03         -0.0260
 212       1.818e-01      -1.312e-01       3.641e-08           0.000          -0.000           1.000       1.326e-03         -0.0341
 213       1.555e-01      -1.312e-01       3.446e-07           0.000           0.000           1.000       1.454e-03         -0.0435
 214       1.272e-01      -1.312e-01       9.930e-07           0.000           0.000           1.000       1.498e-03         -0.0550
 215       9.851e-02      -1.312e-01      -1.336e-08          -0.000           0.000           1.000       1.454e-03         -0.0713
 216       7.104e-02      -1.312e-01      -1.739e-06           0.000           0.000           1.000       1.326e-03         -0.0904
 217       4.642e-02      -1.312e-01       2.241e-06          -0.000           0.000           1.000       1.121e-03         -0.1226
 218       2.607e-02      -1.312e-01      -2.672e-07          -0.000          -0.000           1.000       8.508e-04         -0.1767
 219       1.118e-02      -1.312e-01      -8.133e-07           0.000          -0.000           1.000       5.311e-04         -0.2962
 220       2.615e-03      -1.312e-01      -4.842e-07           0.000           0.000           1.000       1.805e-04         -0.7160
Strip 18
 221       2.391e-01      -7.910e-02       3.006e-09           0.000           0.000           1.000       1.830e-04         -0.0072
 222       2.339e-01      -7.910e-02       5.410e-09          -0.000           0.000           1.000       5.385e-04         -0.0127
 223       2.221e-01      -7.910e-02      -3.730e-09           0.000           0.000           1.000       8.626e-04         -0.0191
 224       2.044e-01      -7.910e-02       2.181e-08          -0.000          -0.000           1.000       1.137e-03         -0.0263
 225       1.818e-01      -7.910e-02       3.641e-08           0.000           0.000           1.000       1.345e-03         -0.0344
 226       1.555e-01      -7.910e-02       3.446e-07           0.000           0.000           1.000       1.474e-03         -0.0439
 227       1.272e-01      -7.910e-02       9.930e-07           0.000          -0.000           1.000       1.518e-03         -0.0555
 228       9.851e-02      -7.910e-02      -1.336e-08          -0.000           0.000           1.000       1.474e-03         -0.0719
 229       7.104e-02      -7.910e-02      -1.739e-06           0.000           0.000           1.000       1.345e-03         -0.0911
 230       4.642e-02      -7.910e-02       2.241e-06          -0.000          -0.000           1.000       1.137e-03         -0.1235
 231       2.607e-02      -7.910e-02      -2.672e-07          -0.000          -0.000           1.000       8.626e-04         -0.1777
 232       1.118e-02      -7.910e-02      -8.133e-07           0.000           0.000           1.000       5.385e-04         -0.2980
 233       2.615e-03      -7.910e-02      -4.842e-07           0.000           0.000           1.000       1.830e-04         -0.7201
Strip 19
 234       2.391e-01      -2.643e-02       3.006e-09           0.000           0.000           1.000       1.843e-04         -0.0072
 235       2.339e-01      -2.643e-02       5.410e-09          -0.000           0.000           1.000       5.422e-04         -0.0128
 236       2.221e-01      -2.643e-02      -3.730e-09           0.000           0.000           1.000       8.685e-04         -0.0192
 237       2.044e-01      -2.643e-02       2.181e-08          -0.000           0.000           1.000       1.144e-03         -0.0264
 238       1.818e-01      -2.643e-02       3.641e-08           0.000           0.000           1.000       1.354e-03         -0.0346
 239       1.555e-01      -2.643e-02       3.446e-07           0.000           0.000           1.000       1.484e-03         -0.0441
 240       1.272e-01      -2.643e-02       9.930e-07           0.000           0.000           1.000       1.529e-03         -0.0557
 241       9.851e-02      -2.643e-02      -1.336e-08          -0.000          -0.000           1.000       1.484e-03         -0.0721
 242       7.104e-02      -2.643e-02      -1.739e-06           0.000           0.000           1.000       1.354e-03         -0.0914
 243       4.642e-02      -2.643e-02       2.241e-06          -0.000           0.000           1.000       1.144e-03         -0.1239
 244       2.607e-02      -2.643e-02      -2.672e-07          -0.000           0.000           1.000       8.685e-04         -0.1783
 245       1.118e-02      -2.643e-02      -8.133e-07           0.000           0.000           1.000       5.422e-04         -0.2988
 246       2.615e-03      -2.643e-02      -4.842e-07           0.000           0.000           1.000       1.843e-04         -0.7221
Strip 20
 247       2.391e-01       2.643e-02       3.006e-09           0.000           0.000           1.000       1.843e-04         -0.0072
 248       2.339e-01       2.643e-02       5.410e-09          -0.000           0.000           1.000       5.422e-04         -0.0128
 249       2.221e-01       2.643e-02      -3.730e-09           0.000           0.000           1.000       8.685e-04         -0.0192
 250       2.044e-01       2.643e-02       2.181e-08          -0.000          -0.000           1.000       1.144e-03         -0.0264
 251       1.818e-01       2.643e-02       3.641e-08           0.000           0.000           1.000       1.354e-03         -0.0346
 252       1.555e-01       2.643e-02       3.446e-07           0.000           0.000           1.000       1.484e-03         -0.0441
 253       1.272e-01       2.643e-02       9.930e-07           0.000           0.000           1.000       1.529e-03         -0.0557
 254       9.851e-02       2.643e-02      -1.336e-08          -0.000           0.000           1.000       1.484e-03         -0.0721
 255       7.104e-02       2.643e-02      -1.739e-06           0.000           0.000           1.000       1.354e-03         -0.0914
 256       4.642e-02       2.643e-02       2.241e-06          -0.000           0.000           1.000       1.144e-03         -0.1239
 257       2.607e-02       2.643e-02      -2.672e-07          -0.000           0.000           1.000       8.685e-04         -0.1783
 258       1.118e-02       2.643e-02      -8.133e-07           0.000           0.000           1.000       5.422e-04         -0.2988
 259       2.615e-03       2.643e-02      -4.842e-07           0.000           0.000           1.000       1.843e-04         -0.7221
Strip 21
 260       2.391e-01       7.910e-02       3.006e-09           0.000           0.000           1.000       1.830e-04         -0.0072
 261       2.339e-01       7.910e-02       5.410e-09          -0.000          -0.000           1.000       5.385e-04         -0.0127
 262       2.221e-01       7.910e-02      -3.730e-09           0.000           0.000           1.000       8.626e-04         -0.0191
 263       2.044e-01       7.910e-02       2.181e-08          -0.000           0.000           1.000       1.137e-03         -0.0263
 264       1.818e-01       7.910e-02       3.641e-08           0.000          -0.000           1.000       1.345e-03         -0.0344
 265       1.555e-01       7.910e-02       3.446e-07           0.000           0.000           1.000       1.474e-03         -0.0439
 266       1.272e-01       7.910e-02       9.930e-07           0.000           0.000           1.000       1.518e-03         -0.0555
 267       9.851e-02       7.910e-02      -1.336e-08          -0.000          -0.000           1.000       1.474e-03         -0.0719
 268       7.104e-02       7.910e-02      -1.739e-06           0.000           0.000           1.000       1.345e-03         -0.0911
 269       4.642e-02       7.910e-02       2.241e-06          -0.000           0.000           1.000       1.137e-03         -0.1235
 270       2.607e-02       7.910e-02      -2.672e-07          -0.000           0.000           1.000       8.626e-04         -0.1777
 271       1.118e-02       7.910e-02      -8.133e-07           0.000          -0.000           1.000       5.385e-04         -0.2980
 272       2.615e-03       7.910e-02      -4.842e-07           0.000           0.000           1.000       1.830e-04         -0.7201
Strip 22
 273       2.391e-01       1.312e-01       3.006e-09           0.000           0.000           1.000       1.805e-04         -0.0071
 274       2.339e-01       1.312e-01       5.410e-09          -0.000           0.000           1.000       5.311e-04         -0.0126
 275       2.221e-01       1.312e-01      -3.730e-09           0.000          -0.000           1.000       8.508e-04         -0.0189
 276       2.044e-01       1.312e-01       2.181e-08          -0.000           0.000           1.000       1.121e-03         -0.0260
 277       1.818e-01       1.312e-01       3.641e-08           0.000          -0.000           1.000       1.326e-03         -0.0341
 278       1.555e-01       1.312e-01       3.446e-07           0.000           0.000           1.000       1.454e-03         -0.0435
 279       1.272e-01       1.312e-01       9.930e-07           0.000          -0.000           1.000       1.498e-03         -0.0550
 280       9.851e-02       1.312e-01      -1.336e-08          -0.000           0.000           1.000       1.454e-03         -0.0713
 281       7.104e-02       1.312e-01      -1.739e-06           0.000          -0.000           1.000       1.326e-03         -0.0904
 282       4.642e-02       1.312e-01       2.241e-06          -0.000           0.000           1.000       1.121e-03         -0.1226
 283       2.607e-02       1.312e-01      -2.672e-07          -0.000           0.000           1.000       8.508e-04         -0.1767
 284       1.118e-02       1.312e-01      -8.133e-07           0.000           0.000           1.000       5.311e-04         -0.2962
 285       2.615e-03       1.312e-01      -4.842e-07           0.000           0.000           1.000       1.805e-04         -0.7160
Strip 23
 286       2.391e-01       1.825e-01       3.006e-09           0.000           0.000           1.000       1.768e-04         -0.0070
 287       2.339e-01       1.825e-01       5.410e-09          -0.000           0.000           1.000       5.201e-04         -0.0124
 288       2.221e-01       1.825e-01      -3.730e-09           0.000           0.000           1.000       8.331e-04         -0.0186
 289       2.044e-01       1.825e-01       2.181e-08          -0.000          -0.000           1.000       1.098e-03         -0.0256
 290       1.818e-01       1.825e-01       3.641e-08           0.000           0.000           1.000       1.299e-03         -0.0336
 291       1.555e-01       1.825e-01       3.446e-07           0.000           0.000           1.000       1.424e-03         -0.0429
 292       1.272e-01       1.825e-01       9.930e-07           0.000           0.000           1.000       1.467e-03         -0.0543
 293       9.851e-02       1.825e-01      -1.336e-08          -0.000          -0.000           1.000       1.424e-03         -0.0705
 294       7.104e-02       1.825e-01      -1.739e-06           0.000           0.000           1.000       1.299e-03         -0.0894
 295       4.642e-02       1.825e-01       2.241e-06          -0.000           0.000           1.000       1.098e-03         -0.1214
 296       2.607e-02       1.825e-01      -2.672e-07          -0.000           0.000           1.000       8.331e-04         -0.1750
 297       1.118e-02       1.825e-01      -8.133e-07           0.000          -0.000           1.000       5.201e-04         -0.2935
 298       2.615e-03       1.825e-01      -4.842e-07           0.000           0.000           1.000       1.768e-04         -0.7096
Strip 24
 299       2.391e-01       2.324e-01       3.006e-09           0.000           0.000           1.000       1.718e-04         -0.0068
 300       2.339e-01       2.324e-01       5.410e-09          -0.000           0.000           1.000       5.055e-04         -0.0121
 301       2.221e-01       2.324e-01      -3.730e-09           0.000           0.000           1.000       8.098e-04         -0.0182
 302       2.044e-01       2.324e-01       2.181e-08          -0.000           0.000           1.000       1.067e-03         -0.0251
 303       1.818e-01       2.324e-01       3.641e-08           0.000          -0.000           1.000       1.262e-03         -0.0329
 304       1.555e-01       2.324e-01       3.446e-07           0.000           0.000           1.000       1.384e-03         -0.0420
 305       1.272e-01       2.324e-01       9.930e-07           0.000           0.000           1.000       1.426e-03         -0.0533
 306       9.851e-02       2.324e-01      -1.336e-08          -0.000          -0.000           1.000       1.384e-03         -0.0693
 307       7.104e-02       2.324e-01      -1.739e-06           0.000           0.000           1.000       1.262e-03         -0.0880
 308       4.642e-02       2.324e-01       2.241e-06          -0.000           0.000           1.000       1.067e-03         -0.1197
 309       2.607e-02       2.324e-01      -2.672e-07          -0.000           0.000           1.000       8.098e-04         -0.1727
 310       1.118e-02       2.324e-01      -8.133e-07           0.000           0.000           1.000       5.055e-04         -0.2899
 311       2.615e-03       2.324e-01      -4.842e-07           0.000           0.000           1.000       1.718e-04         -0.7010
Strip 25
 312       2.391e-01       2.808e-01       3.006e-09           0.000           0.000           1.000       1.657e-04         -0.0066
 313       2.339e-01       2.808e-01       5.410e-09          -0.000           0.000           1.000       4.875e-04         -0.0117
 314       2.221e-01       2.808e-01      -3.730e-09           0.000          -0.000           1.000       7.809e-04         -0.0177
 315       2.044e-01       2.808e-01       2.181e-08          -0.000           0.000           1.000       1.029e-03         -0.0243
 316       1.818e-01       2.808e-01       3.641e-08           0.000           0.000           1.000       1.217e-03         -0.0320
 317       1.555e-01       2.808e-01       3.446e-07           0.000           0.000           1.000       1.335e-03         -0.0409
 318       1.272e-01       2.808e-01       9.930e-07           0.000          -0.000           1.000       1.375e-03         -0.0520
 319       9.851e-02       2.808e-01      -1.336e-08          -0.000           0.000           1.000       1.335e-03         -0.0677
 320       7.104e-02       2.808e-01      -1.739e-06           0.000           0.000           1.000       1.217e-03         -0.0862
 321       4.642e-02       2.808e-01       2.241e-06          -0.000           0.000           1.000       1.029e-03         -0.1174
 322       2.607e-02       2.808e-01      -2.672e-07          -0.000           0.000           1.000       7.809e-04         -0.1697
 323       1.118e-02       2.808e-01      -8.133e-07           0.000           0.000           1.000       4.875e-04         -0.2852
 324       2.615e-03       2.808e-01      -4.842e-07           0.000           0.000           1.000       1.657e-04         -0.6899
Strip 26
 325       2.391e-01       3.273e-01       3.006e-09           0.000           0.000           1.000       1.585e-04         -0.0063
 326       2.339e-01       3.273e-01       5.410e-09          -0.000           0.000           1.000       4.661e-04         -0.0113
 327       2.221e-01       3.273e-01      -3.730e-09           0.000           0.000           1.000       7.467e-04         -0.0170
 328       2.044e-01       3.273e-01       2.181e-08          -0.000           0.000           1.000       9.839e-04         -0.0234
 329       1.818e-01       3.273e-01       3.641e-08           0.000           0.000           1.000       1.164e-03         -0.0308
 330       1.555e-01       3.273e-01       3.446e-07           0.000           0.000           1.000       1.276e-03         -0.0395
 331       1.272e-01       3.273e-01       9.930e-07           0.000           0.000           1.000       1.315e-03         -0.0503
 332       9.851e-02       3.273e-01      -1.336e-08          -0.000           0.000           1.000       1.276e-03         -0.0658
 333       7.104e-02       3.273e-01      -1.739e-06           0.000           0.000           1.000       1.164e-03         -0.0839
 334       4.642e-02       3.273e-01       2.241e-06          -0.000          -0.000           1.000       9.839e-04         -0.1146
 335       2.607e-02       3.273e-01      -2.672e-07          -0.000          -0.000           1.000       7.467e-04         -0.1660
 336       1.118e-02       3.273e-01      -8.133e-07           0.000           0.000           1.000       4.661e-04         -0.2794
 337       2.615e-03       3.273e-01      -4.842e-07           0.000           0.000           1.000       1.585e-04         -0.6762
Strip 27
 338       2.391e-01       3.716e-01       3.006e-09           0.000           0.000           1.000       1.501e-04         -0.0060
 339       2.339e-01       3.716e-01       5.410e-09          -0.000           0.000           1.000       4.416e-04         -0.0107
 340       2.221e-01       3.716e-01      -3.730e-09           0.000           0.000           1.000       7.074e-04         -0.0162
 341       2.044e-01       3.716e-01       2.181e-08          -0.000          -0.000           1.000       9.322e-04         -0.0223
 342       1.818e-01       3.716e-01       3.641e-08           0.000           0.000           1.000       1.103e-03         -0.0294
 343       1.555e-01       3.716e-01       3.446e-07           0.000           0.000           1.000       1.209e-03         -0.0378
 344       1.272e-01       3.716e-01       9.930e-07           0.000           0.000           1.000       1.245e-03         -0.0483
 345       9.851e-02       3.716e-01      -1.336e-08          -0.000           0.000           1.000       1.209e-03         -0.0634
 346       7.104e-02       3.716e-01      -1.739e-06           0.000           0.000           1.000       1.103e-03         -0.0811
 347       4.642e-02       3.716e-01       2.241e-06          -0.000           0.000           1.000       9.322e-04         -0.1112
 348       2.607e-02       3.716e-01      -2.672e-07          -0.000           0.000           1.000       7.074e-04         -0.1615
 349       1.118e-02       3.716e-01      -8.133e-07           0.000          -0.000           1.000       4.416e-04         -0.2723
 350       2.615e-03       3.716e-01      -4.842e-07           0.000           0.000           1.000       1.501e-04         -0.6596
Strip 28
 351       2.391e-01       4.133e-01       3.006e-09           0.000           0.000           1.000       1.407e-04         -0.0057
 352       2.339e-01       4.133e-01       5.410e-09          -0.000           0.000           1.000       4.141e-04         -0.0101
 353       2.221e-01       4.133e-01      -3.730e-09           0.000          -0.000           1.000       6.633e-04         -0.0152
 354       2.044e-01       4.133e-01       2.181e-08          -0.000           0.000           1.000       8.740e-04         -0.0210
 355       1.818e-01       4.133e-01       3.641e-08           0.000           0.000           1.000       1.034e-03         -0.0277
 356       1.555e-01       4.133e-01       3.446e-07           0.000           0.000           1.000       1.134e-03         -0.0357
 357       1.272e-01       4.133e-01       9.930e-07           0.000           0.000           1.000       1.168e-03         -0.0458
 358       9.851e-02       4.133e-01      -1.336e-08          -0.000          -0.000           1.000       1.134e-03         -0.0605
 359       7.104e-02       4.133e-01      -1.739e-06           0.000           0.000           1.000       1.034e-03         -0.0777
 360       4.642e-02       4.133e-01       2.241e-06          -0.000           0.000           1.000       8.740e-04         -0.1071
 361       2.607e-02       4.133e-01      -2.672e-07          -0.000           0.000           1.000       6.633e-04         -0.1561
 362       1.118e-02       4.133e-01      -8.133e-07           0.000           0.000           1.000       4.141e-04         -0.2639
 363       2.615e-03       4.133e-01      -4.842e-07           0.000           0.000           1.000       1.407e-04         -0.6398
Strip 29
 364       2.391e-01       4.522e-01       3.006e-09           0.000           0.000           1.000       1.304e-04         -0.0052
 365       2.339e-01       4.522e-01       5.410e-09          -0.000           0.000           1.000       3.837e-04         -0.0093
 366       2.221e-01       4.522e-01      -3.730e-09           0.000          -0.000           1.000       6.147e-04         -0.0141
 367       2.044e-01       4.522e-01       2.181e-08          -0.000           0.000           1.000       8.099e-04         -0.0195
 368       1.818e-01       4.522e-01       3.641e-08           0.000          -0.000           1.000       9.581e-04         -0.0258
 369       1.555e-01       4.522e-01       3.446e-07           0.000           0.000           1.000       1.051e-03         -0.0333
 370       1.272e-01       4.522e-01       9.930e-07           0.000          -0.000           1.000       1.082e-03         -0.0429
 371       9.851e-02       4.522e-01      -1.336e-08          -0.000           0.000           1.000       1.051e-03         -0.0571
 372       7.104e-02       4.522e-01      -1.739e-06           0.000           0.000           1.000       9.581e-04         -0.0736
 373       4.642e-02       4.522e-01       2.241e-06          -0.000           0.000           1.000       8.099e-04         -0.1022
 374       2.607e-02       4.522e-01      -2.672e-07          -0.000           0.000           1.000       6.147e-04         -0.1497
 375       1.118e-02       4.522e-01      -8.133e-07           0.000           0.000           1.000       3.837e-04         -0.2539
 376       2.615e-03       4.522e-01      -4.842e-07           0.000           0.000           1.000       1.304e-04         -0.6165
Strip 30
 377       2.391e-01       4.880e-01       3.006e-09           0.000           0.000           1.000       1.192e-04         -0.0048
 378       2.339e-01       4.880e-01       5.410e-09          -0.000           0.000           1.000       3.507e-04         -0.0085
 379       2.221e-01       4.880e-01      -3.730e-09           0.000           0.000           1.000       5.618e-04         -0.0128
 380       2.044e-01       4.880e-01       2.181e-08          -0.000          -0.000           1.000       7.403e-04         -0.0177
 381       1.818e-01       4.880e-01       3.641e-08           0.000           0.000           1.000       8.757e-04         -0.0235
 382       1.555e-01       4.880e-01       3.446e-07           0.000           0.000           1.000       9.602e-04         -0.0305
 383       1.272e-01       4.880e-01       9.930e-07           0.000           0.000           1.000       9.890e-04         -0.0394
 384       9.851e-02       4.880e-01      -1.336e-08          -0.000          -0.000           1.000       9.602e-04         -0.0530
 385       7.104e-02       4.880e-01      -1.739e-06           0.000           0.000           1.000       8.757e-04         -0.0688
 386       4.642e-02       4.880e-01       2.241e-06          -0.000           0.000           1.000       7.403e-04         -0.0964
 387       2.607e-02       4.880e-01      -2.672e-07          -0.000           0.000           1.000       5.618e-04         -0.1422
 388       1.118e-02       4.880e-01      -8.133e-07           0.000          -0.000           1.000       3.507e-04         -0.2423
 389       2.615e-03       4.880e-01      -4.842e-07           0.000           0.000           1.000       1.192e-04         -0.5894
Strip 31
 390       2.391e-01       5.204e-01       3.006e-09           0.000           0.000           1.000       1.072e-04         -0.0042
 391       2.339e-01       5.204e-01       5.410e-09          -0.000           0.000           1.000       3.153e-04         -0.0076
 392       2.221e-01       5.204e-01      -3.730e-09           0.000           0.000           1.000       5.051e-04         -0.0114
 393       2.044e-01       5.204e-01       2.181e-08          -0.000           0.000           1.000       6.656e-04         -0.0158
 394       1.818e-01       5.204e-01       3.641e-08           0.000          -0.000           1.000       7.873e-04         -0.0210
 395       1.555e-01       5.204e-01       3.446e-07           0.000           0.000           1.000       8.633e-04         -0.0273
 396       1.272e-01       5.204e-01       9.930e-07           0.000          -0.000           1.000       8.892e-04         -0.0355
 397       9.851e-02       5.204e-01      -1.336e-08          -0.000           0.000           1.000       8.633e-04         -0.0482
 398       7.104e-02       5.204e-01      -1.739e-06           0.000           0.000           1.000       7.873e-04         -0.0631
 399       4.642e-02       5.204e-01       2.241e-06          -0.000          -0.000           1.000       6.656e-04         -0.0895
 400       2.607e-02       5.204e-01      -2.672e-07          -0.000          -0.000           1.000       5.051e-04         -0.1334
 401       1.118e-02       5.204e-01      -8.133e-07           0.000           0.000           1.000       3.153e-04         -0.2288
 402       2.615e-03       5.204e-01      -4.842e-07           0.000           0.000           1.000       1.072e-04         -0.5583
Strip 32
 403       2.391e-01       5.493e-01       3.006e-09           0.000           0.000           1.000       9.442e-05         -0.0037
 404       2.339e-01       5.493e-01       5.410e-09          -0.000           0.000           1.000       2.778e-04         -0.0066
 405       2.221e-01       5.493e-01      -3.730e-09           0.000           0.000           1.000       4.450e-04         -0.0100
 406       2.044e-01       5.493e-01       2.181e-08          -0.000          -0.000           1.000       5.863e-04         -0.0138
 407       1.818e-01       5.493e-01       3.641e-08           0.000           0.000           1.000       6.936e-04         -0.0184
 408       1.555e-01       5.493e-01       3.446e-07           0.000           0.000           1.000       7.605e-04         -0.0238
 409       1.272e-01       5.493e-01       9.930e-07           0.000          -0.000           1.000       7.833e-04         -0.0311
 410       9.851e-02       5.493e-01      -1.336e-08          -0.000           0.000           1.000       7.605e-04         -0.0428
 411       7.104e-02       5.493e-01      -1.739e-06           0.000           0.000           1.000       6.936e-04         -0.0564
 412       4.642e-02       5.493e-01       2.241e-06          -0.000           0.000           1.000       5.863e-04         -0.0814
 413       2.607e-02       5.493e-01      -2.672e-07          -0.000           0.000           1.000       4.450e-04         -0.1231
 414       1.118e-02       5.493e-01      -8.133e-07           0.000           0.000           1.000       2.778e-04         -0.2133
 415       2.615e-03       5.493e-01      -4.842e-07           0.000           0.000           1.000       9.442e-05         -0.5226
Strip 33
 416       2.391e-01       5.745e-01       3.006e-09           0.000           0.000           1.000       8.101e-05         -0.0032
 417       2.339e-01       5.745e-01       5.410e-09          -0.000           0.000           1.000       2.383e-04         -0.0057
 418       2.221e-01       5.745e-01      -3.730e-09           0.000           0.000           1.000       3.818e-04         -0.0085
 419       2.044e-01       5.745e-01       2.181e-08          -0.000           0.000           1.000       5.030e-04         -0.0118
 420       1.818e-01       5.745e-01       3.641e-08           0.000           0.000           1.000       5.951e-04         -0.0156
 421       1.555e-01       5.745e-01       3.446e-07           0.000           0.000           1.000       6.525e-04         -0.0202
 422       1.272e-01       5.745e-01       9.930e-07           0.000           0.000           1.000       6.721e-04         -0.0265
 423       9.851e-02       5.745e-01      -1.336e-08          -0.000           0.000           1.000       6.525e-04         -0.0368
 424       7.104e-02       5.745e-01      -1.739e-06           0.000           0.000           1.000       5.951e-04         -0.0489
 425       4.642e-02       5.745e-01       2.241e-06          -0.000           0.000           1.000       5.030e-04         -0.0720
 426       2.607e-02       5.745e-01      -2.672e-07          -0.000           0.000           1.000       3.818e-04         -0.1111
 427       1.118e-02       5.745e-01      -8.133e-07           0.000           0.000           1.000       2.383e-04         -0.1954
 428       2.615e-03       5.745e-01      -4.842e-07           0.000           0.000           1.000       8.101e-05         -0.4819
Strip 34
 429       2.391e-01       5.957e-01       3.006e-09           0.000           0.000           1.000       6.705e-05         -0.0027
 430       2.339e-01       5.957e-01       5.410e-09          -0.000           0.000           1.000       1.972e-04         -0.0048
 431       2.221e-01       5.957e-01      -3.730e-09           0.000           0.000           1.000       3.160e-04         -0.0071
 432       2.044e-01       5.957e-01       2.181e-08          -0.000           0.000           1.000       4.164e-04         -0.0098
 433       1.818e-01       5.957e-01       3.641e-08           0.000           0.000           1.000       4.925e-04         -0.0129
 434       1.555e-01       5.957e-01       3.446e-07           0.000           0.000           1.000       5.401e-04         -0.0166
 435       1.272e-01       5.957e-01       9.930e-07           0.000           0.000           1.000       5.562e-04         -0.0217
 436       9.851e-02       5.957e-01      -1.336e-08          -0.000           0.000           1.000       5.401e-04         -0.0304
 437       7.104e-02       5.957e-01      -1.739e-06           0.000           0.000           1.000       4.925e-04         -0.0405
 438       4.642e-02       5.957e-01       2.241e-06          -0.000           0.000           1.000       4.164e-04         -0.0611
 439       2.607e-02       5.957e-01      -2.672e-07          -0.000           0.000           1.000       3.160e-04         -0.0969
 440       1.118e-02       5.957e-01      -8.133e-07           0.000           0.000           1.000       1.972e-04         -0.1747
 441       2.615e-03       5.957e-01      -4.842e-07           0.000           0.000           1.000       6.705e-05         -0.4356
Strip 35
 442       2.391e-01       6.129e-01       3.006e-09           0.000           0.000           1.000       5.263e-05         -0.0022
 443       2.339e-01       6.129e-01       5.410e-09          -0.000           0.000           1.000       1.548e-04         -0.0039
 444       2.221e-01       6.129e-01      -3.730e-09           0.000           0.000           1.000       2.480e-04         -0.0057
 445       2.044e-01       6.129e-01       2.181e-08          -0.000           0.000           1.000       3.268e-04         -0.0078
 446       1.818e-01       6.129e-01       3.641e-08           0.000           0.000           1.000       3.866e-04         -0.0102
 447       1.555e-01       6.129e-01       3.446e-07           0.000           0.000           1.000       4.239e-04         -0.0131
 448       1.272e-01       6.129e-01       9.930e-07           0.000           0.000           1.000       4.366e-04         -0.0170
 449       9.851e-02       6.129e-01      -1.336e-08          -0.000           0.000           1.000       4.239e-04         -0.0241
 450       7.104e-02       6.129e-01      -1.739e-06           0.000           0.000           1.000       3.866e-04         -0.0317
 451       4.642e-02       6.129e-01       2.241e-06          -0.000           0.000           1.000       3.268e-04         -0.0489
 452       2.607e-02       6.129e-01      -2.672e-07          -0.000           0.000           1.000       2.480e-04         -0.0802
 453       1.118e-02       6.129e-01      -8.133e-07           0.000           0.000           1.000       1.548e-04         -0.1505
 454       2.615e-03       6.129e-01      -4.842e-07           0.000           0.000           1.000       5.263e-05         -0.3827
Strip 36
 455       2.391e-01       6.258e-01       3.006e-09           0.000           0.000           1.000       3.785e-05         -0.0017
 456       2.339e-01       6.258e-01       5.410e-09          -0.000           0.000           1.000       1.114e-04         -0.0030
 457       2.221e-01       6.258e-01      -3.730e-09           0.000           0.000           1.000       1.784e-04         -0.0044
 458       2.044e-01       6.258e-01       2.181e-08          -0.000           0.000           1.000       2.351e-04         -0.0059
 459       1.818e-01       6.258e-01       3.641e-08           0.000           0.000           1.000       2.781e-04         -0.0077
 460       1.555e-01       6.258e-01       3.446e-07           0.000           0.000           1.000       3.049e-04         -0.0098
 461       1.272e-01       6.258e-01       9.930e-07           0.000           0.000           1.000       3.140e-04         -0.0126
 462       9.851e-02       6.258e-01      -1.336e-08          -0.000           0.000           1.000       3.049e-04         -0.0180
 463       7.104e-02       6.258e-01      -1.739e-06           0.000           0.000           1.000       2.781e-04         -0.0232
 464       4.642e-02       6.258e-01       2.241e-06          -0.000           0.000           1.000       2.351e-04         -0.0361
 465       2.607e-02       6.258e-01      -2.672e-07          -0.000          -0.000           1.000       1.784e-04         -0.0607
 466       1.118e-02       6.258e-01      -8.133e-07           0.000          -0.000           1.000       1.114e-04         -0.1213
 467       2.615e-03       6.258e-01      -4.842e-07           0.000           0.000           1.000       3.785e-05         -0.3218
Strip 37
 468       2.391e-01       6.345e-01       3.006e-09           0.000           0.000           1.000       2.281e-05         -0.0013
 469       2.339e-01       6.345e-01       5.410e-09          -0.000           0.000           1.000       6.712e-05         -0.0021
 470       2.221e-01       6.345e-01      -3.730e-09           0.000           0.000           1.000       1.075e-04         -0.0030
 471       2.044e-01       6.345e-01       2.181e-08          -0.000           0.000           1.000       1.417e-04         -0.0040
 472       1.818e-01       6.345e-01       3.641e-08           0.000           0.000           1.000       1.676e-04         -0.0052
 473       1.555e-01       6.345e-01       3.446e-07           0.000           0.000           1.000       1.838e-04         -0.0066
 474       1.272e-01       6.345e-01       9.930e-07           0.000           0.000           1.000       1.893e-04         -0.0085
 475       9.851e-02       6.345e-01      -1.336e-08          -0.000           0.000           1.000       1.838e-04         -0.0122
 476       7.104e-02       6.345e-01      -1.739e-06           0.000           0.000           1.000       1.676e-04         -0.0154
 477       4.642e-02       6.345e-01       2.241e-06          -0.000           0.000           1.000       1.417e-04         -0.0240
 478       2.607e-02       6.345e-01      -2.672e-07          -0.000           0.000           1.000       1.075e-04         -0.0402
 479       1.118e-02       6.345e-01      -8.133e-07           0.000           0.000           1.000       6.712e-05         -0.0853
 480       2.615e-03       6.345e-01      -4.842e-07           0.000           0.000           1.000       2.281e-05         -0.2502
Strip 38
 481       2.391e-01       6.389e-01       3.006e-09           0.000           0.000           1.000       7.622e-06         -0.0008
 482       2.339e-01       6.389e-01       5.410e-09          -0.000           0.000           1.000       2.242e-05         -0.0013
 483       2.221e-01       6.389e-01      -3.730e-09           0.000           0.000           1.000       3.592e-05         -0.0018
 484       2.044e-01       6.389e-01       2.181e-08          -0.000           0.000           1.000       4.733e-05         -0.0023
 485       1.818e-01       6.389e-01       3.641e-08           0.000           0.000           1.000       5.599e-05         -0.0030
 486       1.555e-01       6.389e-01       3.446e-07           0.000           0.000           1.000       6.140e-05         -0.0038
 487       1.272e-01       6.389e-01       9.930e-07           0.000           0.000           1.000       6.324e-05         -0.0049
 488       9.851e-02       6.389e-01      -1.336e-08          -0.000           0.000           1.000       6.140e-05         -0.0070
 489       7.104e-02       6.389e-01      -1.739e-06           0.000           0.000           1.000       5.599e-05         -0.0088
 490       4.642e-02       6.389e-01       2.241e-06          -0.000           0.000           1.000       4.733e-05         -0.0136
 491       2.607e-02       6.389e-01      -2.672e-07          -0.000           0.000           1.000       3.592e-05         -0.0225
 492       1.118e-02       6.389e-01      -8.133e-07           0.000           0.000           1.000       2.242e-05         -0.0470
 493       2.615e-03       6.389e-01      -4.842e-07           0.000           0.000           1.000       7.622e-06         -0.1615










