xflr5 v6.50

Plane Name
T1-44.0 m/s-VLM1
QInf  =   44.000000 m/s
Alpha =   14.000000
Beta  =    0.000°
Phi   =    0.000°
Ctrl  =    0.000
CL    =    0.981325
Cy    =    0.000000
Cd    =    0.081831     ICd   =    0.056499     PCd   =    0.025331
Cl   = 6.04876e-18
Cm   =   -0.231332
ICn   =    0.000000     PCn   =   -0.000000 
XCP   =    0.057922     YCP   =   -0.000000     ZCP   =   -0.000000  
XNP   =    0.000000
Bending =   45.471124

Main Wing
  y-span        Chord      Ai         Cl        PCd          ICd        CmGeom    CmAirf@chord/4    XTrtop    XTrBot      XCP       BM
   -0.6389     0.2400    -5.501    0.143139    0.006948    0.013786   -0.027056    0.009149     0.6380    0.6997    0.1861    0.0000
   -0.6345     0.2400    -5.434    0.246292    0.006990    0.023427   -0.046825    0.015171     0.6101    0.7252    0.1884    0.0004
   -0.6258     0.2400    -5.324    0.354073    0.007099    0.032995   -0.068891    0.020056     0.5653    0.7533    0.1934    0.0052
   -0.6129     0.2400    -5.179    0.458303    0.007321    0.041538   -0.091972    0.023047     0.5119    0.7828    0.1997    0.0264
   -0.5957     0.2400    -5.002    0.556634    0.009288    0.048724   -0.115568    0.024153     0.2421    0.8230    0.2066    0.0884
   -0.5745     0.2400    -4.799    0.647630    0.011594    0.054375   -0.138918    0.023691     0.0655    0.8743    0.2134    0.2297
   -0.5493     0.2400    -4.575    0.730357    0.012947    0.058445   -0.161254    0.022118     0.0362    0.9335    0.2197    0.5048
   -0.5204     0.2400    -4.338    0.804316    0.014298    0.061018   -0.182036    0.019908     0.0277    0.9737    0.2252    0.9837
   -0.4880     0.2400    -4.098    0.869408    0.015793    0.062285   -0.200847    0.017460     0.0239    0.9902    0.2299    1.7499
   -0.4522     0.2400    -3.862    0.925866    0.017234    0.062509   -0.217447    0.015061     0.0212    0.9999    0.2337    2.8974
   -0.4133     0.2400    -3.641    0.974167    0.019258    0.061981   -0.231822    0.012884     0.0190    1.0000    0.2368    4.5273
   -0.3716     0.2400    -3.438    1.014933    0.022386    0.060973   -0.244079    0.011008     0.0179    1.0000    0.2392    6.7422
   -0.3273     0.2400    -3.259    1.048842    0.024996    0.059717   -0.254269    0.009453     0.0173    1.0000    0.2410    9.6420
   -0.2808     0.2400    -3.105    1.076560    0.027701    0.058395   -0.262613    0.008203     0.0168    1.0000    0.2424   13.3188
   -0.2324     0.2400    -2.977    1.098692    0.030388    0.057143   -0.269284    0.007227     0.0164    1.0000    0.2434   17.8521
   -0.1825     0.2400    -2.876    1.115762    0.033001    0.056054   -0.274445    0.006492     0.0160    1.0000    0.2442   23.3043
   -0.1312     0.2400    -2.801    1.128193    0.035723    0.055192   -0.278241    0.005968     0.0158    1.0000    0.2447   29.7172
   -0.0791     0.2400    -2.751    1.136303    0.039401    0.054599   -0.280826    0.005632     0.0155    1.0000    0.2450   37.1089
   -0.0264     0.2400    -2.726    1.140306    0.042758    0.054297   -0.282194    0.005468     0.0153    1.0000    0.2452   45.4711
    0.0264     0.2400    -2.726    1.140306    0.042758    0.054297   -0.282194    0.005468     0.0153    1.0000    0.2452   45.4711
    0.0791     0.2400    -2.751    1.136303    0.039401    0.054599   -0.280826    0.005632     0.0155    1.0000    0.2450   37.1089
    0.1312     0.2400    -2.801    1.128193    0.035723    0.055192   -0.278241    0.005968     0.0158    1.0000    0.2447   29.7172
    0.1825     0.2400    -2.876    1.115762    0.033001    0.056054   -0.274445    0.006492     0.0160    1.0000    0.2442   23.3043
    0.2324     0.2400    -2.977    1.098692    0.030388    0.057143   -0.269284    0.007227     0.0164    1.0000    0.2434   17.8521
    0.2808     0.2400    -3.105    1.076560    0.027701    0.058395   -0.262613    0.008203     0.0168    1.0000    0.2424   13.3188
    0.3273     0.2400    -3.259    1.048842    0.024996    0.059717   -0.254269    0.009453     0.0173    1.0000    0.2410    9.6420
    0.3716     0.2400    -3.438    1.014933    0.022386    0.060973   -0.244079    0.011008     0.0179    1.0000    0.2392    6.7422
    0.4133     0.2400    -3.641    0.974167    0.019258    0.061981   -0.231822    0.012884     0.0190    1.0000    0.2368    4.5273
    0.4522     0.2400    -3.862    0.925866    0.017234    0.062509   -0.217447    0.015061     0.0212    0.9999    0.2337    2.8974
    0.4880     0.2400    -4.098    0.869408    0.015793    0.062285   -0.200847    0.017460     0.0239    0.9902    0.2299    1.7499
    0.5204     0.2400    -4.338    0.804316    0.014298    0.061018   -0.182036    0.019908     0.0277    0.9737    0.2252    0.9837
    0.5493     0.2400    -4.575    0.730357    0.012947    0.058445   -0.161254    0.022118     0.0362    0.9335    0.2197    0.5048
    0.5745     0.2400    -4.799    0.647630    0.011594    0.054375   -0.138918    0.023691     0.0655    0.8743    0.2134    0.2297
    0.5957     0.2400    -5.002    0.556634    0.009288    0.048724   -0.115568    0.024153     0.2421    0.8230    0.2066    0.0884
    0.6129     0.2400    -5.179    0.458303    0.007321    0.041538   -0.091972    0.023047     0.5119    0.7828    0.1997    0.0264
    0.6258     0.2400    -5.324    0.354073    0.007099    0.032995   -0.068891    0.020056     0.5653    0.7533    0.1934    0.0052
    0.6345     0.2400    -5.434    0.246292    0.006990    0.023427   -0.046825    0.015171     0.6101    0.7252    0.1884    0.0004
    0.6389     0.2400    -5.501    0.143139    0.006948    0.013786   -0.027056    0.009149     0.6380    0.6997    0.1861    0.0000


Main Wing Cp Coefficients
 Panel     CtrlPt.x        CtrlPt.y        CtrlPt.z       Nx      Ny       Nz        Area       Cp
Main WingCp Coefficients
Strip 1
   0       2.391e-01      -6.389e-01       3.006e-09           0.000           0.000           1.000       7.622e-06          0.0110
   1       2.339e-01      -6.389e-01       5.410e-09          -0.000           0.000           1.000       2.242e-05          0.0169
   2       2.221e-01      -6.389e-01      -3.730e-09           0.000           0.000           1.000       3.592e-05          0.0236
   3       2.044e-01      -6.389e-01       2.181e-08          -0.000           0.000           1.000       4.733e-05          0.0312
   4       1.818e-01      -6.389e-01       3.641e-08           0.000           0.000           1.000       5.599e-05          0.0403
   5       1.555e-01      -6.389e-01       3.446e-07           0.000           0.000           1.000       6.140e-05          0.0519
   6       1.272e-01      -6.389e-01       9.930e-07           0.000           0.000           1.000       6.324e-05          0.0675
   7       9.851e-02      -6.389e-01      -1.336e-08          -0.000           0.000           1.000       6.140e-05          0.0891
   8       7.104e-02      -6.389e-01      -1.739e-06           0.000           0.000           1.000       5.599e-05          0.1238
   9       4.642e-02      -6.389e-01       2.241e-06          -0.000           0.000           1.000       4.733e-05          0.1820
  10       2.607e-02      -6.389e-01      -2.672e-07          -0.000           0.000           1.000       3.592e-05          0.3015
  11       1.118e-02      -6.389e-01      -8.133e-07           0.000           0.000           1.000       2.242e-05          0.6300
  12       2.615e-03      -6.389e-01      -4.842e-07           0.000           0.000           1.000       7.622e-06          2.1799
Strip 2
  13       2.391e-01      -6.345e-01       3.006e-09           0.000           0.000           1.000       2.281e-05          0.0173
  14       2.339e-01      -6.345e-01       5.410e-09          -0.000           0.000           1.000       6.712e-05          0.0286
  15       2.221e-01      -6.345e-01      -3.730e-09           0.000           0.000           1.000       1.075e-04          0.0407
  16       2.044e-01      -6.345e-01       2.181e-08          -0.000           0.000           1.000       1.417e-04          0.0540
  17       1.818e-01      -6.345e-01       3.641e-08           0.000           0.000           1.000       1.676e-04          0.0700
  18       1.555e-01      -6.345e-01       3.446e-07           0.000           0.000           1.000       1.838e-04          0.0902
  19       1.272e-01      -6.345e-01       9.930e-07           0.000           0.000           1.000       1.893e-04          0.1174
  20       9.851e-02      -6.345e-01      -1.336e-08          -0.000           0.000           1.000       1.838e-04          0.1553
  21       7.104e-02      -6.345e-01      -1.739e-06           0.000           0.000           1.000       1.676e-04          0.2165
  22       4.642e-02      -6.345e-01       2.241e-06          -0.000           0.000           1.000       1.417e-04          0.3205
  23       2.607e-02      -6.345e-01      -2.672e-07          -0.000           0.000           1.000       1.075e-04          0.5378
  24       1.118e-02      -6.345e-01      -8.133e-07           0.000           0.000           1.000       6.712e-05          1.1441
  25       2.615e-03      -6.345e-01      -4.842e-07           0.000           0.000           1.000       2.281e-05          3.3761
Strip 3
  26       2.391e-01      -6.258e-01       3.006e-09           0.000           0.000           1.000       3.785e-05          0.0234
  27       2.339e-01      -6.258e-01       5.410e-09          -0.000           0.000           1.000       1.114e-04          0.0403
  28       2.221e-01      -6.258e-01      -3.730e-09           0.000           0.000           1.000       1.784e-04          0.0587
  29       2.044e-01      -6.258e-01       2.181e-08          -0.000           0.000           1.000       2.351e-04          0.0789
  30       1.818e-01      -6.258e-01       3.641e-08           0.000           0.000           1.000       2.781e-04          0.1026
  31       1.555e-01      -6.258e-01       3.446e-07           0.000           0.000           1.000       3.049e-04          0.1328
  32       1.272e-01      -6.258e-01       9.930e-07           0.000           0.000           1.000       3.140e-04          0.1734
  33       9.851e-02      -6.258e-01      -1.336e-08          -0.000           0.000           1.000       3.049e-04          0.2306
  34       7.104e-02      -6.258e-01      -1.739e-06           0.000           0.000           1.000       2.781e-04          0.3234
  35       4.642e-02      -6.258e-01       2.241e-06          -0.000           0.000           1.000       2.351e-04          0.4832
  36       2.607e-02      -6.258e-01      -2.672e-07          -0.000           0.000           1.000       1.784e-04          0.8136
  37       1.118e-02      -6.258e-01      -8.133e-07           0.000           0.000           1.000       1.114e-04          1.6291
  38       2.615e-03      -6.258e-01      -4.842e-07           0.000           0.000           1.000       3.785e-05          4.3389
Strip 4
  39       2.391e-01      -6.129e-01       3.006e-09           0.000           0.000           1.000       5.263e-05          0.0297
  40       2.339e-01      -6.129e-01       5.410e-09          -0.000           0.000           1.000       1.548e-04          0.0519
  41       2.221e-01      -6.129e-01      -3.730e-09           0.000          -0.000           1.000       2.480e-04          0.0770
  42       2.044e-01      -6.129e-01       2.181e-08          -0.000           0.000           1.000       3.268e-04          0.1045
  43       1.818e-01      -6.129e-01       3.641e-08           0.000          -0.000           1.000       3.866e-04          0.1369
  44       1.555e-01      -6.129e-01       3.446e-07           0.000           0.000           1.000       4.239e-04          0.1779
  45       1.272e-01      -6.129e-01       9.930e-07           0.000           0.000           1.000       4.366e-04          0.2332
  46       9.851e-02      -6.129e-01      -1.336e-08          -0.000           0.000           1.000       4.239e-04          0.3119
  47       7.104e-02      -6.129e-01      -1.739e-06           0.000           0.000           1.000       3.866e-04          0.4388
  48       4.642e-02      -6.129e-01       2.241e-06          -0.000           0.000           1.000       3.268e-04          0.6552
  49       2.607e-02      -6.129e-01      -2.672e-07          -0.000           0.000           1.000       2.480e-04          1.0753
  50       1.118e-02      -6.129e-01      -8.133e-07           0.000           0.000           1.000       1.548e-04          2.0207
  51       2.615e-03      -6.129e-01      -4.842e-07           0.000           0.000           1.000       5.263e-05          5.1580
Strip 5
  52       2.391e-01      -5.957e-01       3.006e-09           0.000           0.000           1.000       6.705e-05          0.0362
  53       2.339e-01      -5.957e-01       5.410e-09          -0.000           0.000           1.000       1.972e-04          0.0638
  54       2.221e-01      -5.957e-01      -3.730e-09           0.000           0.000           1.000       3.160e-04          0.0957
  55       2.044e-01      -5.957e-01       2.181e-08          -0.000           0.000           1.000       4.164e-04          0.1310
  56       1.818e-01      -5.957e-01       3.641e-08           0.000          -0.000           1.000       4.925e-04          0.1727
  57       1.555e-01      -5.957e-01       3.446e-07           0.000           0.000           1.000       5.401e-04          0.2253
  58       1.272e-01      -5.957e-01       9.930e-07           0.000          -0.000           1.000       5.562e-04          0.2962
  59       9.851e-02      -5.957e-01      -1.336e-08          -0.000           0.000           1.000       5.401e-04          0.3971
  60       7.104e-02      -5.957e-01      -1.739e-06           0.000           0.000           1.000       4.925e-04          0.5567
  61       4.642e-02      -5.957e-01       2.241e-06          -0.000           0.000           1.000       4.164e-04          0.8200
  62       2.607e-02      -5.957e-01      -2.672e-07          -0.000           0.000           1.000       3.160e-04          1.3004
  63       1.118e-02      -5.957e-01      -8.133e-07           0.000           0.000           1.000       1.972e-04          2.3467
  64       2.615e-03      -5.957e-01      -4.842e-07           0.000           0.000           1.000       6.705e-05          5.8692
Strip 6
  65       2.391e-01      -5.745e-01       3.006e-09           0.000           0.000           1.000       8.101e-05          0.0431
  66       2.339e-01      -5.745e-01       5.410e-09          -0.000           0.000           1.000       2.383e-04          0.0762
  67       2.221e-01      -5.745e-01      -3.730e-09           0.000           0.000           1.000       3.818e-04          0.1149
  68       2.044e-01      -5.745e-01       2.181e-08          -0.000           0.000           1.000       5.030e-04          0.1583
  69       1.818e-01      -5.745e-01       3.641e-08           0.000           0.000           1.000       5.951e-04          0.2095
  70       1.555e-01      -5.745e-01       3.446e-07           0.000           0.000           1.000       6.525e-04          0.2740
  71       1.272e-01      -5.745e-01       9.930e-07           0.000           0.000           1.000       6.721e-04          0.3605
  72       9.851e-02      -5.745e-01      -1.336e-08          -0.000           0.000           1.000       6.525e-04          0.4822
  73       7.104e-02      -5.745e-01      -1.739e-06           0.000           0.000           1.000       5.951e-04          0.6694
  74       4.642e-02      -5.745e-01       2.241e-06          -0.000           0.000           1.000       5.030e-04          0.9668
  75       2.607e-02      -5.745e-01      -2.672e-07          -0.000           0.000           1.000       3.818e-04          1.4908
  76       1.118e-02      -5.745e-01      -8.133e-07           0.000           0.000           1.000       2.383e-04          2.6251
  77       2.615e-03      -5.745e-01      -4.842e-07           0.000           0.000           1.000       8.101e-05          6.4924
Strip 7
  78       2.391e-01      -5.493e-01       3.006e-09           0.000           0.000           1.000       9.442e-05          0.0502
  79       2.339e-01      -5.493e-01       5.410e-09          -0.000           0.000           1.000       2.778e-04          0.0889
  80       2.221e-01      -5.493e-01      -3.730e-09           0.000          -0.000           1.000       4.450e-04          0.1344
  81       2.044e-01      -5.493e-01       2.181e-08          -0.000           0.000           1.000       5.863e-04          0.1857
  82       1.818e-01      -5.493e-01       3.641e-08           0.000           0.000           1.000       6.936e-04          0.2464
  83       1.555e-01      -5.493e-01       3.446e-07           0.000           0.000           1.000       7.605e-04          0.3225
  84       1.272e-01      -5.493e-01       9.930e-07           0.000          -0.000           1.000       7.833e-04          0.4232
  85       9.851e-02      -5.493e-01      -1.336e-08          -0.000           0.000           1.000       7.605e-04          0.5628
  86       7.104e-02      -5.493e-01      -1.739e-06           0.000           0.000           1.000       6.936e-04          0.7713
  87       4.642e-02      -5.493e-01       2.241e-06          -0.000           0.000           1.000       5.863e-04          1.0937
  88       2.607e-02      -5.493e-01      -2.672e-07          -0.000           0.000           1.000       4.450e-04          1.6526
  89       1.118e-02      -5.493e-01      -8.133e-07           0.000           0.000           1.000       2.778e-04          2.8658
  90       2.615e-03      -5.493e-01      -4.842e-07           0.000           0.000           1.000       9.442e-05          7.0398
Strip 8
  91       2.391e-01      -5.204e-01       3.006e-09           0.000           0.000           1.000       1.072e-04          0.0573
  92       2.339e-01      -5.204e-01       5.410e-09          -0.000           0.000           1.000       3.153e-04          0.1016
  93       2.221e-01      -5.204e-01      -3.730e-09           0.000           0.000           1.000       5.051e-04          0.1537
  94       2.044e-01      -5.204e-01       2.181e-08          -0.000          -0.000           1.000       6.656e-04          0.2127
  95       1.818e-01      -5.204e-01       3.641e-08           0.000           0.000           1.000       7.873e-04          0.2822
  96       1.555e-01      -5.204e-01       3.446e-07           0.000           0.000           1.000       8.633e-04          0.3688
  97       1.272e-01      -5.204e-01       9.930e-07           0.000           0.000           1.000       8.892e-04          0.4820
  98       9.851e-02      -5.204e-01      -1.336e-08          -0.000          -0.000           1.000       8.633e-04          0.6359
  99       7.104e-02      -5.204e-01      -1.739e-06           0.000           0.000           1.000       7.873e-04          0.8606
 100       4.642e-02      -5.204e-01       2.241e-06          -0.000          -0.000           1.000       6.656e-04          1.2022
 101       2.607e-02      -5.204e-01      -2.672e-07          -0.000           0.000           1.000       5.051e-04          1.7909
 102       1.118e-02      -5.204e-01      -8.133e-07           0.000           0.000           1.000       3.153e-04          3.0747
 103       2.615e-03      -5.204e-01      -4.842e-07           0.000           0.000           1.000       1.072e-04          7.5199
Strip 9
 104       2.391e-01      -4.880e-01       3.006e-09           0.000           0.000           1.000       1.192e-04          0.0642
 105       2.339e-01      -4.880e-01       5.410e-09          -0.000           0.000           1.000       3.507e-04          0.1138
 106       2.221e-01      -4.880e-01      -3.730e-09           0.000           0.000           1.000       5.618e-04          0.1722
 107       2.044e-01      -4.880e-01       2.181e-08          -0.000           0.000           1.000       7.403e-04          0.2382
 108       1.818e-01      -4.880e-01       3.641e-08           0.000          -0.000           1.000       8.757e-04          0.3158
 109       1.555e-01      -4.880e-01       3.446e-07           0.000          -0.000           1.000       9.602e-04          0.4115
 110       1.272e-01      -4.880e-01       9.930e-07           0.000           0.000           1.000       9.890e-04          0.5348
 111       9.851e-02      -4.880e-01      -1.336e-08          -0.000          -0.000           1.000       9.602e-04          0.7000
 112       7.104e-02      -4.880e-01      -1.739e-06           0.000           0.000           1.000       8.757e-04          0.9372
 113       4.642e-02      -4.880e-01       2.241e-06          -0.000          -0.000           1.000       7.403e-04          1.2946
 114       2.607e-02      -4.880e-01      -2.672e-07          -0.000          -0.000           1.000       5.618e-04          1.9094
 115       1.118e-02      -4.880e-01      -8.133e-07           0.000          -0.000           1.000       3.507e-04          3.2557
 116       2.615e-03      -4.880e-01      -4.842e-07           0.000           0.000           1.000       1.192e-04          7.9391
Strip 10
 117       2.391e-01      -4.522e-01       3.006e-09           0.000           0.000           1.000       1.304e-04          0.0706
 118       2.339e-01      -4.522e-01       5.410e-09          -0.000           0.000           1.000       3.837e-04          0.1251
 119       2.221e-01      -4.522e-01      -3.730e-09           0.000          -0.000           1.000       6.147e-04          0.1893
 120       2.044e-01      -4.522e-01       2.181e-08          -0.000          -0.000           1.000       8.099e-04          0.2616
 121       1.818e-01      -4.522e-01       3.641e-08           0.000           0.000           1.000       9.581e-04          0.3461
 122       1.555e-01      -4.522e-01       3.446e-07           0.000           0.000           1.000       1.051e-03          0.4494
 123       1.272e-01      -4.522e-01       9.930e-07           0.000           0.000           1.000       1.082e-03          0.5810
 124       9.851e-02      -4.522e-01      -1.336e-08          -0.000           0.000           1.000       1.051e-03          0.7551
 125       7.104e-02      -4.522e-01      -1.739e-06           0.000           0.000           1.000       9.581e-04          1.0023
 126       4.642e-02      -4.522e-01       2.241e-06          -0.000           0.000           1.000       8.099e-04          1.3729
 127       2.607e-02      -4.522e-01      -2.672e-07          -0.000           0.000           1.000       6.147e-04          2.0106
 128       1.118e-02      -4.522e-01      -8.133e-07           0.000          -0.000           1.000       3.837e-04          3.4120
 129       2.615e-03      -4.522e-01      -4.842e-07           0.000           0.000           1.000       1.304e-04          8.3028
Strip 11
 130       2.391e-01      -4.133e-01       3.006e-09           0.000           0.000           1.000       1.407e-04          0.0763
 131       2.339e-01      -4.133e-01       5.410e-09          -0.000           0.000           1.000       4.141e-04          0.1352
 132       2.221e-01      -4.133e-01      -3.730e-09           0.000          -0.000           1.000       6.633e-04          0.2045
 133       2.044e-01      -4.133e-01       2.181e-08          -0.000           0.000           1.000       8.740e-04          0.2822
 134       1.818e-01      -4.133e-01       3.641e-08           0.000           0.000           1.000       1.034e-03          0.3727
 135       1.555e-01      -4.133e-01       3.446e-07           0.000           0.000           1.000       1.134e-03          0.4823
 136       1.272e-01      -4.133e-01       9.930e-07           0.000           0.000           1.000       1.168e-03          0.6205
 137       9.851e-02      -4.133e-01      -1.336e-08          -0.000           0.000           1.000       1.134e-03          0.8017
 138       7.104e-02      -4.133e-01      -1.739e-06           0.000           0.000           1.000       1.034e-03          1.0571
 139       4.642e-02      -4.133e-01       2.241e-06          -0.000           0.000           1.000       8.740e-04          1.4390
 140       2.607e-02      -4.133e-01      -2.672e-07          -0.000           0.000           1.000       6.633e-04          2.0967
 141       1.118e-02      -4.133e-01      -8.133e-07           0.000           0.000           1.000       4.141e-04          3.5458
 142       2.615e-03      -4.133e-01      -4.842e-07           0.000           0.000           1.000       1.407e-04          8.6158
Strip 12
 143       2.391e-01      -3.716e-01       3.006e-09           0.000           0.000           1.000       1.501e-04          0.0813
 144       2.339e-01      -3.716e-01       5.410e-09          -0.000           0.000           1.000       4.416e-04          0.1440
 145       2.221e-01      -3.716e-01      -3.730e-09           0.000           0.000           1.000       7.074e-04          0.2176
 146       2.044e-01      -3.716e-01       2.181e-08          -0.000          -0.000           1.000       9.322e-04          0.3000
 147       1.818e-01      -3.716e-01       3.641e-08           0.000           0.000           1.000       1.103e-03          0.3954
 148       1.555e-01      -3.716e-01       3.446e-07           0.000           0.000           1.000       1.209e-03          0.5101
 149       1.272e-01      -3.716e-01       9.930e-07           0.000          -0.000           1.000       1.245e-03          0.6537
 150       9.851e-02      -3.716e-01      -1.336e-08          -0.000           0.000           1.000       1.209e-03          0.8407
 151       7.104e-02      -3.716e-01      -1.739e-06           0.000           0.000           1.000       1.103e-03          1.1029
 152       4.642e-02      -3.716e-01       2.241e-06          -0.000          -0.000           1.000       9.322e-04          1.4944
 153       2.607e-02      -3.716e-01      -2.672e-07          -0.000          -0.000           1.000       7.074e-04          2.1692
 154       1.118e-02      -3.716e-01      -8.133e-07           0.000           0.000           1.000       4.416e-04          3.6594
 155       2.615e-03      -3.716e-01      -4.842e-07           0.000           0.000           1.000       1.501e-04          8.8822
Strip 13
 156       2.391e-01      -3.273e-01       3.006e-09           0.000           0.000           1.000       1.585e-04          0.0855
 157       2.339e-01      -3.273e-01       5.410e-09          -0.000           0.000           1.000       4.661e-04          0.1515
 158       2.221e-01      -3.273e-01      -3.730e-09           0.000           0.000           1.000       7.467e-04          0.2287
 159       2.044e-01      -3.273e-01       2.181e-08          -0.000           0.000           1.000       9.839e-04          0.3150
 160       1.818e-01      -3.273e-01       3.641e-08           0.000           0.000           1.000       1.164e-03          0.4143
 161       1.555e-01      -3.273e-01       3.446e-07           0.000           0.000           1.000       1.276e-03          0.5332
 162       1.272e-01      -3.273e-01       9.930e-07           0.000           0.000           1.000       1.315e-03          0.6811
 163       9.851e-02      -3.273e-01      -1.336e-08          -0.000           0.000           1.000       1.276e-03          0.8728
 164       7.104e-02      -3.273e-01      -1.739e-06           0.000           0.000           1.000       1.164e-03          1.1407
 165       4.642e-02      -3.273e-01       2.241e-06          -0.000           0.000           1.000       9.839e-04          1.5404
 166       2.607e-02      -3.273e-01      -2.672e-07          -0.000           0.000           1.000       7.467e-04          2.2298
 167       1.118e-02      -3.273e-01      -8.133e-07           0.000           0.000           1.000       4.661e-04          3.7547
 168       2.615e-03      -3.273e-01      -4.842e-07           0.000           0.000           1.000       1.585e-04          9.1061
Strip 14
 169       2.391e-01      -2.808e-01       3.006e-09           0.000           0.000           1.000       1.657e-04          0.0890
 170       2.339e-01      -2.808e-01       5.410e-09          -0.000           0.000           1.000       4.875e-04          0.1576
 171       2.221e-01      -2.808e-01      -3.730e-09           0.000          -0.000           1.000       7.809e-04          0.2378
 172       2.044e-01      -2.808e-01       2.181e-08          -0.000           0.000           1.000       1.029e-03          0.3272
 173       1.818e-01      -2.808e-01       3.641e-08           0.000           0.000           1.000       1.217e-03          0.4297
 174       1.555e-01      -2.808e-01       3.446e-07           0.000           0.000           1.000       1.335e-03          0.5519
 175       1.272e-01      -2.808e-01       9.930e-07           0.000          -0.000           1.000       1.375e-03          0.7034
 176       9.851e-02      -2.808e-01      -1.336e-08          -0.000           0.000           1.000       1.335e-03          0.8988
 177       7.104e-02      -2.808e-01      -1.739e-06           0.000           0.000           1.000       1.217e-03          1.1714
 178       4.642e-02      -2.808e-01       2.241e-06          -0.000           0.000           1.000       1.029e-03          1.5779
 179       2.607e-02      -2.808e-01      -2.672e-07          -0.000           0.000           1.000       7.809e-04          2.2794
 180       1.118e-02      -2.808e-01      -8.133e-07           0.000           0.000           1.000       4.875e-04          3.8331
 181       2.615e-03      -2.808e-01      -4.842e-07           0.000           0.000           1.000       1.657e-04          9.2910
Strip 15
 182       2.391e-01      -2.324e-01       3.006e-09           0.000           0.000           1.000       1.718e-04          0.0918
 183       2.339e-01      -2.324e-01       5.410e-09          -0.000           0.000           1.000       5.055e-04          0.1625
 184       2.221e-01      -2.324e-01      -3.730e-09           0.000           0.000           1.000       8.098e-04          0.2451
 185       2.044e-01      -2.324e-01       2.181e-08          -0.000          -0.000           1.000       1.067e-03          0.3369
 186       1.818e-01      -2.324e-01       3.641e-08           0.000           0.000           1.000       1.262e-03          0.4420
 187       1.555e-01      -2.324e-01       3.446e-07           0.000           0.000           1.000       1.384e-03          0.5668
 188       1.272e-01      -2.324e-01       9.930e-07           0.000           0.000           1.000       1.426e-03          0.7210
 189       9.851e-02      -2.324e-01      -1.336e-08          -0.000          -0.000           1.000       1.384e-03          0.9195
 190       7.104e-02      -2.324e-01      -1.739e-06           0.000           0.000           1.000       1.262e-03          1.1958
 191       4.642e-02      -2.324e-01       2.241e-06          -0.000           0.000           1.000       1.067e-03          1.6078
 192       2.607e-02      -2.324e-01      -2.672e-07          -0.000           0.000           1.000       8.098e-04          2.3193
 193       1.118e-02      -2.324e-01      -8.133e-07           0.000          -0.000           1.000       5.055e-04          3.8963
 194       2.615e-03      -2.324e-01      -4.842e-07           0.000           0.000           1.000       1.718e-04          9.4400
Strip 16
 195       2.391e-01      -1.825e-01       3.006e-09           0.000           0.000           1.000       1.768e-04          0.0940
 196       2.339e-01      -1.825e-01       5.410e-09          -0.000           0.000           1.000       5.201e-04          0.1663
 197       2.221e-01      -1.825e-01      -3.730e-09           0.000          -0.000           1.000       8.331e-04          0.2507
 198       2.044e-01      -1.825e-01       2.181e-08          -0.000           0.000           1.000       1.098e-03          0.3444
 199       1.818e-01      -1.825e-01       3.641e-08           0.000           0.000           1.000       1.299e-03          0.4515
 200       1.555e-01      -1.825e-01       3.446e-07           0.000           0.000           1.000       1.424e-03          0.5783
 201       1.272e-01      -1.825e-01       9.930e-07           0.000           0.000           1.000       1.467e-03          0.7345
 202       9.851e-02      -1.825e-01      -1.336e-08          -0.000           0.000           1.000       1.424e-03          0.9354
 203       7.104e-02      -1.825e-01      -1.739e-06           0.000           0.000           1.000       1.299e-03          1.2146
 204       4.642e-02      -1.825e-01       2.241e-06          -0.000          -0.000           1.000       1.098e-03          1.6309
 205       2.607e-02      -1.825e-01      -2.672e-07          -0.000           0.000           1.000       8.331e-04          2.3501
 206       1.118e-02      -1.825e-01      -8.133e-07           0.000           0.000           1.000       5.201e-04          3.9453
 207       2.615e-03      -1.825e-01      -4.842e-07           0.000           0.000           1.000       1.768e-04          9.5559
Strip 17
 208       2.391e-01      -1.312e-01       3.006e-09           0.000           0.000           1.000       1.805e-04          0.0955
 209       2.339e-01      -1.312e-01       5.410e-09          -0.000           0.000           1.000       5.311e-04          0.1690
 210       2.221e-01      -1.312e-01      -3.730e-09           0.000           0.000           1.000       8.508e-04          0.2548
 211       2.044e-01      -1.312e-01       2.181e-08          -0.000           0.000           1.000       1.121e-03          0.3499
 212       1.818e-01      -1.312e-01       3.641e-08           0.000          -0.000           1.000       1.326e-03          0.4583
 213       1.555e-01      -1.312e-01       3.446e-07           0.000           0.000           1.000       1.454e-03          0.5866
 214       1.272e-01      -1.312e-01       9.930e-07           0.000           0.000           1.000       1.498e-03          0.7443
 215       9.851e-02      -1.312e-01      -1.336e-08          -0.000           0.000           1.000       1.454e-03          0.9469
 216       7.104e-02      -1.312e-01      -1.739e-06           0.000           0.000           1.000       1.326e-03          1.2283
 217       4.642e-02      -1.312e-01       2.241e-06          -0.000           0.000           1.000       1.121e-03          1.6478
 218       2.607e-02      -1.312e-01      -2.672e-07          -0.000          -0.000           1.000       8.508e-04          2.3727
 219       1.118e-02      -1.312e-01      -8.133e-07           0.000          -0.000           1.000       5.311e-04          3.9812
 220       2.615e-03      -1.312e-01      -4.842e-07           0.000           0.000           1.000       1.805e-04          9.6408
Strip 18
 221       2.391e-01      -7.910e-02       3.006e-09           0.000           0.000           1.000       1.830e-04          0.0966
 222       2.339e-01      -7.910e-02       5.410e-09          -0.000           0.000           1.000       5.385e-04          0.1708
 223       2.221e-01      -7.910e-02      -3.730e-09           0.000           0.000           1.000       8.626e-04          0.2574
 224       2.044e-01      -7.910e-02       2.181e-08          -0.000          -0.000           1.000       1.137e-03          0.3534
 225       1.818e-01      -7.910e-02       3.641e-08           0.000           0.000           1.000       1.345e-03          0.4628
 226       1.555e-01      -7.910e-02       3.446e-07           0.000           0.000           1.000       1.474e-03          0.5919
 227       1.272e-01      -7.910e-02       9.930e-07           0.000          -0.000           1.000       1.518e-03          0.7507
 228       9.851e-02      -7.910e-02      -1.336e-08          -0.000           0.000           1.000       1.474e-03          0.9544
 229       7.104e-02      -7.910e-02      -1.739e-06           0.000           0.000           1.000       1.345e-03          1.2372
 230       4.642e-02      -7.910e-02       2.241e-06          -0.000          -0.000           1.000       1.137e-03          1.6588
 231       2.607e-02      -7.910e-02      -2.672e-07          -0.000          -0.000           1.000       8.626e-04          2.3874
 232       1.118e-02      -7.910e-02      -8.133e-07           0.000           0.000           1.000       5.385e-04          4.0047
 233       2.615e-03      -7.910e-02      -4.842e-07           0.000           0.000           1.000       1.830e-04          9.6965
Strip 19
 234       2.391e-01      -2.643e-02       3.006e-09           0.000           0.000           1.000       1.843e-04          0.0971
 235       2.339e-01      -2.643e-02       5.410e-09          -0.000           0.000           1.000       5.422e-04          0.1717
 236       2.221e-01      -2.643e-02      -3.730e-09           0.000           0.000           1.000       8.685e-04          0.2587
 237       2.044e-01      -2.643e-02       2.181e-08          -0.000           0.000           1.000       1.144e-03          0.3552
 238       1.818e-01      -2.643e-02       3.641e-08           0.000           0.000           1.000       1.354e-03          0.4649
 239       1.555e-01      -2.643e-02       3.446e-07           0.000           0.000           1.000       1.484e-03          0.5946
 240       1.272e-01      -2.643e-02       9.930e-07           0.000           0.000           1.000       1.529e-03          0.7539
 241       9.851e-02      -2.643e-02      -1.336e-08          -0.000          -0.000           1.000       1.484e-03          0.9581
 242       7.104e-02      -2.643e-02      -1.739e-06           0.000           0.000           1.000       1.354e-03          1.2416
 243       4.642e-02      -2.643e-02       2.241e-06          -0.000           0.000           1.000       1.144e-03          1.6642
 244       2.607e-02      -2.643e-02      -2.672e-07          -0.000           0.000           1.000       8.685e-04          2.3947
 245       1.118e-02      -2.643e-02      -8.133e-07           0.000           0.000           1.000       5.422e-04          4.0164
 246       2.615e-03      -2.643e-02      -4.842e-07           0.000           0.000           1.000       1.843e-04          9.7240
Strip 20
 247       2.391e-01       2.643e-02       3.006e-09           0.000           0.000           1.000       1.843e-04          0.0971
 248       2.339e-01       2.643e-02       5.410e-09          -0.000           0.000           1.000       5.422e-04          0.1717
 249       2.221e-01       2.643e-02      -3.730e-09           0.000           0.000           1.000       8.685e-04          0.2587
 250       2.044e-01       2.643e-02       2.181e-08          -0.000          -0.000           1.000       1.144e-03          0.3552
 251       1.818e-01       2.643e-02       3.641e-08           0.000           0.000           1.000       1.354e-03          0.4649
 252       1.555e-01       2.643e-02       3.446e-07           0.000           0.000           1.000       1.484e-03          0.5946
 253       1.272e-01       2.643e-02       9.930e-07           0.000           0.000           1.000       1.529e-03          0.7539
 254       9.851e-02       2.643e-02      -1.336e-08          -0.000           0.000           1.000       1.484e-03          0.9581
 255       7.104e-02       2.643e-02      -1.739e-06           0.000           0.000           1.000       1.354e-03          1.2416
 256       4.642e-02       2.643e-02       2.241e-06          -0.000           0.000           1.000       1.144e-03          1.6642
 257       2.607e-02       2.643e-02      -2.672e-07          -0.000           0.000           1.000       8.685e-04          2.3947
 258       1.118e-02       2.643e-02      -8.133e-07           0.000           0.000           1.000       5.422e-04          4.0164
 259       2.615e-03       2.643e-02      -4.842e-07           0.000           0.000           1.000       1.843e-04          9.7240
Strip 21
 260       2.391e-01       7.910e-02       3.006e-09           0.000           0.000           1.000       1.830e-04          0.0966
 261       2.339e-01       7.910e-02       5.410e-09          -0.000          -0.000           1.000       5.385e-04          0.1708
 262       2.221e-01       7.910e-02      -3.730e-09           0.000           0.000           1.000       8.626e-04          0.2574
 263       2.044e-01       7.910e-02       2.181e-08          -0.000           0.000           1.000       1.137e-03          0.3534
 264       1.818e-01       7.910e-02       3.641e-08           0.000          -0.000           1.000       1.345e-03          0.4628
 265       1.555e-01       7.910e-02       3.446e-07           0.000           0.000           1.000       1.474e-03          0.5919
 266       1.272e-01       7.910e-02       9.930e-07           0.000           0.000           1.000       1.518e-03          0.7507
 267       9.851e-02       7.910e-02      -1.336e-08          -0.000          -0.000           1.000       1.474e-03          0.9544
 268       7.104e-02       7.910e-02      -1.739e-06           0.000           0.000           1.000       1.345e-03          1.2372
 269       4.642e-02       7.910e-02       2.241e-06          -0.000           0.000           1.000       1.137e-03          1.6588
 270       2.607e-02       7.910e-02      -2.672e-07          -0.000           0.000           1.000       8.626e-04          2.3874
 271       1.118e-02       7.910e-02      -8.133e-07           0.000          -0.000           1.000       5.385e-04          4.0047
 272       2.615e-03       7.910e-02      -4.842e-07           0.000           0.000           1.000       1.830e-04          9.6965
Strip 22
 273       2.391e-01       1.312e-01       3.006e-09           0.000           0.000           1.000       1.805e-04          0.0955
 274       2.339e-01       1.312e-01       5.410e-09          -0.000           0.000           1.000       5.311e-04          0.1690
 275       2.221e-01       1.312e-01      -3.730e-09           0.000          -0.000           1.000       8.508e-04          0.2548
 276       2.044e-01       1.312e-01       2.181e-08          -0.000           0.000           1.000       1.121e-03          0.3499
 277       1.818e-01       1.312e-01       3.641e-08           0.000          -0.000           1.000       1.326e-03          0.4583
 278       1.555e-01       1.312e-01       3.446e-07           0.000           0.000           1.000       1.454e-03          0.5866
 279       1.272e-01       1.312e-01       9.930e-07           0.000          -0.000           1.000       1.498e-03          0.7443
 280       9.851e-02       1.312e-01      -1.336e-08          -0.000           0.000           1.000       1.454e-03          0.9469
 281       7.104e-02       1.312e-01      -1.739e-06           0.000          -0.000           1.000       1.326e-03          1.2283
 282       4.642e-02       1.312e-01       2.241e-06          -0.000           0.000           1.000       1.121e-03          1.6478
 283       2.607e-02       1.312e-01      -2.672e-07          -0.000           0.000           1.000       8.508e-04          2.3727
 284       1.118e-02       1.312e-01      -8.133e-07           0.000           0.000           1.000       5.311e-04          3.9812
 285       2.615e-03       1.312e-01      -4.842e-07           0.000           0.000           1.000       1.805e-04          9.6408
Strip 23
 286       2.391e-01       1.825e-01       3.006e-09           0.000           0.000           1.000       1.768e-04          0.0940
 287       2.339e-01       1.825e-01       5.410e-09          -0.000           0.000           1.000       5.201e-04          0.1663
 288       2.221e-01       1.825e-01      -3.730e-09           0.000           0.000           1.000       8.331e-04          0.2507
 289       2.044e-01       1.825e-01       2.181e-08          -0.000          -0.000           1.000       1.098e-03          0.3444
 290       1.818e-01       1.825e-01       3.641e-08           0.000           0.000           1.000       1.299e-03          0.4515
 291       1.555e-01       1.825e-01       3.446e-07           0.000           0.000           1.000       1.424e-03          0.5783
 292       1.272e-01       1.825e-01       9.930e-07           0.000           0.000           1.000       1.467e-03          0.7345
 293       9.851e-02       1.825e-01      -1.336e-08          -0.000          -0.000           1.000       1.424e-03          0.9354
 294       7.104e-02       1.825e-01      -1.739e-06           0.000           0.000           1.000       1.299e-03          1.2146
 295       4.642e-02       1.825e-01       2.241e-06          -0.000           0.000           1.000       1.098e-03          1.6309
 296       2.607e-02       1.825e-01      -2.672e-07          -0.000           0.000           1.000       8.331e-04          2.3501
 297       1.118e-02       1.825e-01      -8.133e-07           0.000          -0.000           1.000       5.201e-04          3.9453
 298       2.615e-03       1.825e-01      -4.842e-07           0.000           0.000           1.000       1.768e-04          9.5559
Strip 24
 299       2.391e-01       2.324e-01       3.006e-09           0.000           0.000           1.000       1.718e-04          0.0918
 300       2.339e-01       2.324e-01       5.410e-09          -0.000           0.000           1.000       5.055e-04          0.1625
 301       2.221e-01       2.324e-01      -3.730e-09           0.000           0.000           1.000       8.098e-04          0.2451
 302       2.044e-01       2.324e-01       2.181e-08          -0.000           0.000           1.000       1.067e-03          0.3369
 303       1.818e-01       2.324e-01       3.641e-08           0.000          -0.000           1.000       1.262e-03          0.4420
 304       1.555e-01       2.324e-01       3.446e-07           0.000           0.000           1.000       1.384e-03          0.5668
 305       1.272e-01       2.324e-01       9.930e-07           0.000           0.000           1.000       1.426e-03          0.7210
 306       9.851e-02       2.324e-01      -1.336e-08          -0.000          -0.000           1.000       1.384e-03          0.9195
 307       7.104e-02       2.324e-01      -1.739e-06           0.000           0.000           1.000       1.262e-03          1.1958
 308       4.642e-02       2.324e-01       2.241e-06          -0.000           0.000           1.000       1.067e-03          1.6078
 309       2.607e-02       2.324e-01      -2.672e-07          -0.000           0.000           1.000       8.098e-04          2.3193
 310       1.118e-02       2.324e-01      -8.133e-07           0.000           0.000           1.000       5.055e-04          3.8963
 311       2.615e-03       2.324e-01      -4.842e-07           0.000           0.000           1.000       1.718e-04          9.4400
Strip 25
 312       2.391e-01       2.808e-01       3.006e-09           0.000           0.000           1.000       1.657e-04          0.0890
 313       2.339e-01       2.808e-01       5.410e-09          -0.000           0.000           1.000       4.875e-04          0.1576
 314       2.221e-01       2.808e-01      -3.730e-09           0.000          -0.000           1.000       7.809e-04          0.2378
 315       2.044e-01       2.808e-01       2.181e-08          -0.000           0.000           1.000       1.029e-03          0.3272
 316       1.818e-01       2.808e-01       3.641e-08           0.000           0.000           1.000       1.217e-03          0.4297
 317       1.555e-01       2.808e-01       3.446e-07           0.000           0.000           1.000       1.335e-03          0.5519
 318       1.272e-01       2.808e-01       9.930e-07           0.000          -0.000           1.000       1.375e-03          0.7034
 319       9.851e-02       2.808e-01      -1.336e-08          -0.000           0.000           1.000       1.335e-03          0.8988
 320       7.104e-02       2.808e-01      -1.739e-06           0.000           0.000           1.000       1.217e-03          1.1714
 321       4.642e-02       2.808e-01       2.241e-06          -0.000           0.000           1.000       1.029e-03          1.5779
 322       2.607e-02       2.808e-01      -2.672e-07          -0.000           0.000           1.000       7.809e-04          2.2794
 323       1.118e-02       2.808e-01      -8.133e-07           0.000           0.000           1.000       4.875e-04          3.8331
 324       2.615e-03       2.808e-01      -4.842e-07           0.000           0.000           1.000       1.657e-04          9.2910
Strip 26
 325       2.391e-01       3.273e-01       3.006e-09           0.000           0.000           1.000       1.585e-04          0.0855
 326       2.339e-01       3.273e-01       5.410e-09          -0.000           0.000           1.000       4.661e-04          0.1515
 327       2.221e-01       3.273e-01      -3.730e-09           0.000           0.000           1.000       7.467e-04          0.2287
 328       2.044e-01       3.273e-01       2.181e-08          -0.000           0.000           1.000       9.839e-04          0.3150
 329       1.818e-01       3.273e-01       3.641e-08           0.000           0.000           1.000       1.164e-03          0.4143
 330       1.555e-01       3.273e-01       3.446e-07           0.000           0.000           1.000       1.276e-03          0.5332
 331       1.272e-01       3.273e-01       9.930e-07           0.000           0.000           1.000       1.315e-03          0.6811
 332       9.851e-02       3.273e-01      -1.336e-08          -0.000           0.000           1.000       1.276e-03          0.8728
 333       7.104e-02       3.273e-01      -1.739e-06           0.000           0.000           1.000       1.164e-03          1.1407
 334       4.642e-02       3.273e-01       2.241e-06          -0.000          -0.000           1.000       9.839e-04          1.5404
 335       2.607e-02       3.273e-01      -2.672e-07          -0.000          -0.000           1.000       7.467e-04          2.2298
 336       1.118e-02       3.273e-01      -8.133e-07           0.000           0.000           1.000       4.661e-04          3.7547
 337       2.615e-03       3.273e-01      -4.842e-07           0.000           0.000           1.000       1.585e-04          9.1061
Strip 27
 338       2.391e-01       3.716e-01       3.006e-09           0.000           0.000           1.000       1.501e-04          0.0813
 339       2.339e-01       3.716e-01       5.410e-09          -0.000           0.000           1.000       4.416e-04          0.1440
 340       2.221e-01       3.716e-01      -3.730e-09           0.000           0.000           1.000       7.074e-04          0.2176
 341       2.044e-01       3.716e-01       2.181e-08          -0.000          -0.000           1.000       9.322e-04          0.3000
 342       1.818e-01       3.716e-01       3.641e-08           0.000           0.000           1.000       1.103e-03          0.3954
 343       1.555e-01       3.716e-01       3.446e-07           0.000           0.000           1.000       1.209e-03          0.5101
 344       1.272e-01       3.716e-01       9.930e-07           0.000           0.000           1.000       1.245e-03          0.6537
 345       9.851e-02       3.716e-01      -1.336e-08          -0.000           0.000           1.000       1.209e-03          0.8407
 346       7.104e-02       3.716e-01      -1.739e-06           0.000           0.000           1.000       1.103e-03          1.1029
 347       4.642e-02       3.716e-01       2.241e-06          -0.000           0.000           1.000       9.322e-04          1.4944
 348       2.607e-02       3.716e-01      -2.672e-07          -0.000           0.000           1.000       7.074e-04          2.1692
 349       1.118e-02       3.716e-01      -8.133e-07           0.000          -0.000           1.000       4.416e-04          3.6594
 350       2.615e-03       3.716e-01      -4.842e-07           0.000           0.000           1.000       1.501e-04          8.8822
Strip 28
 351       2.391e-01       4.133e-01       3.006e-09           0.000           0.000           1.000       1.407e-04          0.0763
 352       2.339e-01       4.133e-01       5.410e-09          -0.000           0.000           1.000       4.141e-04          0.1352
 353       2.221e-01       4.133e-01      -3.730e-09           0.000          -0.000           1.000       6.633e-04          0.2045
 354       2.044e-01       4.133e-01       2.181e-08          -0.000           0.000           1.000       8.740e-04          0.2822
 355       1.818e-01       4.133e-01       3.641e-08           0.000           0.000           1.000       1.034e-03          0.3727
 356       1.555e-01       4.133e-01       3.446e-07           0.000           0.000           1.000       1.134e-03          0.4823
 357       1.272e-01       4.133e-01       9.930e-07           0.000           0.000           1.000       1.168e-03          0.6205
 358       9.851e-02       4.133e-01      -1.336e-08          -0.000          -0.000           1.000       1.134e-03          0.8017
 359       7.104e-02       4.133e-01      -1.739e-06           0.000           0.000           1.000       1.034e-03          1.0571
 360       4.642e-02       4.133e-01       2.241e-06          -0.000           0.000           1.000       8.740e-04          1.4390
 361       2.607e-02       4.133e-01      -2.672e-07          -0.000           0.000           1.000       6.633e-04          2.0967
 362       1.118e-02       4.133e-01      -8.133e-07           0.000           0.000           1.000       4.141e-04          3.5458
 363       2.615e-03       4.133e-01      -4.842e-07           0.000           0.000           1.000       1.407e-04          8.6158
Strip 29
 364       2.391e-01       4.522e-01       3.006e-09           0.000           0.000           1.000       1.304e-04          0.0706
 365       2.339e-01       4.522e-01       5.410e-09          -0.000           0.000           1.000       3.837e-04          0.1251
 366       2.221e-01       4.522e-01      -3.730e-09           0.000          -0.000           1.000       6.147e-04          0.1893
 367       2.044e-01       4.522e-01       2.181e-08          -0.000           0.000           1.000       8.099e-04          0.2616
 368       1.818e-01       4.522e-01       3.641e-08           0.000          -0.000           1.000       9.581e-04          0.3461
 369       1.555e-01       4.522e-01       3.446e-07           0.000           0.000           1.000       1.051e-03          0.4494
 370       1.272e-01       4.522e-01       9.930e-07           0.000          -0.000           1.000       1.082e-03          0.5810
 371       9.851e-02       4.522e-01      -1.336e-08          -0.000           0.000           1.000       1.051e-03          0.7551
 372       7.104e-02       4.522e-01      -1.739e-06           0.000           0.000           1.000       9.581e-04          1.0023
 373       4.642e-02       4.522e-01       2.241e-06          -0.000           0.000           1.000       8.099e-04          1.3729
 374       2.607e-02       4.522e-01      -2.672e-07          -0.000           0.000           1.000       6.147e-04          2.0106
 375       1.118e-02       4.522e-01      -8.133e-07           0.000           0.000           1.000       3.837e-04          3.4120
 376       2.615e-03       4.522e-01      -4.842e-07           0.000           0.000           1.000       1.304e-04          8.3028
Strip 30
 377       2.391e-01       4.880e-01       3.006e-09           0.000           0.000           1.000       1.192e-04          0.0642
 378       2.339e-01       4.880e-01       5.410e-09          -0.000           0.000           1.000       3.507e-04          0.1138
 379       2.221e-01       4.880e-01      -3.730e-09           0.000           0.000           1.000       5.618e-04          0.1722
 380       2.044e-01       4.880e-01       2.181e-08          -0.000          -0.000           1.000       7.403e-04          0.2382
 381       1.818e-01       4.880e-01       3.641e-08           0.000           0.000           1.000       8.757e-04          0.3158
 382       1.555e-01       4.880e-01       3.446e-07           0.000           0.000           1.000       9.602e-04          0.4115
 383       1.272e-01       4.880e-01       9.930e-07           0.000           0.000           1.000       9.890e-04          0.5348
 384       9.851e-02       4.880e-01      -1.336e-08          -0.000          -0.000           1.000       9.602e-04          0.7000
 385       7.104e-02       4.880e-01      -1.739e-06           0.000           0.000           1.000       8.757e-04          0.9372
 386       4.642e-02       4.880e-01       2.241e-06          -0.000           0.000           1.000       7.403e-04          1.2946
 387       2.607e-02       4.880e-01      -2.672e-07          -0.000           0.000           1.000       5.618e-04          1.9094
 388       1.118e-02       4.880e-01      -8.133e-07           0.000          -0.000           1.000       3.507e-04          3.2557
 389       2.615e-03       4.880e-01      -4.842e-07           0.000           0.000           1.000       1.192e-04          7.9391
Strip 31
 390       2.391e-01       5.204e-01       3.006e-09           0.000           0.000           1.000       1.072e-04          0.0573
 391       2.339e-01       5.204e-01       5.410e-09          -0.000           0.000           1.000       3.153e-04          0.1016
 392       2.221e-01       5.204e-01      -3.730e-09           0.000           0.000           1.000       5.051e-04          0.1537
 393       2.044e-01       5.204e-01       2.181e-08          -0.000           0.000           1.000       6.656e-04          0.2127
 394       1.818e-01       5.204e-01       3.641e-08           0.000          -0.000           1.000       7.873e-04          0.2822
 395       1.555e-01       5.204e-01       3.446e-07           0.000           0.000           1.000       8.633e-04          0.3688
 396       1.272e-01       5.204e-01       9.930e-07           0.000          -0.000           1.000       8.892e-04          0.4820
 397       9.851e-02       5.204e-01      -1.336e-08          -0.000           0.000           1.000       8.633e-04          0.6359
 398       7.104e-02       5.204e-01      -1.739e-06           0.000           0.000           1.000       7.873e-04          0.8606
 399       4.642e-02       5.204e-01       2.241e-06          -0.000          -0.000           1.000       6.656e-04          1.2022
 400       2.607e-02       5.204e-01      -2.672e-07          -0.000          -0.000           1.000       5.051e-04          1.7909
 401       1.118e-02       5.204e-01      -8.133e-07           0.000           0.000           1.000       3.153e-04          3.0747
 402       2.615e-03       5.204e-01      -4.842e-07           0.000           0.000           1.000       1.072e-04          7.5199
Strip 32
 403       2.391e-01       5.493e-01       3.006e-09           0.000           0.000           1.000       9.442e-05          0.0502
 404       2.339e-01       5.493e-01       5.410e-09          -0.000           0.000           1.000       2.778e-04          0.0889
 405       2.221e-01       5.493e-01      -3.730e-09           0.000           0.000           1.000       4.450e-04          0.1344
 406       2.044e-01       5.493e-01       2.181e-08          -0.000          -0.000           1.000       5.863e-04          0.1857
 407       1.818e-01       5.493e-01       3.641e-08           0.000           0.000           1.000       6.936e-04          0.2464
 408       1.555e-01       5.493e-01       3.446e-07           0.000           0.000           1.000       7.605e-04          0.3225
 409       1.272e-01       5.493e-01       9.930e-07           0.000          -0.000           1.000       7.833e-04          0.4232
 410       9.851e-02       5.493e-01      -1.336e-08          -0.000           0.000           1.000       7.605e-04          0.5628
 411       7.104e-02       5.493e-01      -1.739e-06           0.000           0.000           1.000       6.936e-04          0.7713
 412       4.642e-02       5.493e-01       2.241e-06          -0.000           0.000           1.000       5.863e-04          1.0937
 413       2.607e-02       5.493e-01      -2.672e-07          -0.000           0.000           1.000       4.450e-04          1.6526
 414       1.118e-02       5.493e-01      -8.133e-07           0.000           0.000           1.000       2.778e-04          2.8658
 415       2.615e-03       5.493e-01      -4.842e-07           0.000           0.000           1.000       9.442e-05          7.0398
Strip 33
 416       2.391e-01       5.745e-01       3.006e-09           0.000           0.000           1.000       8.101e-05          0.0431
 417       2.339e-01       5.745e-01       5.410e-09          -0.000           0.000           1.000       2.383e-04          0.0762
 418       2.221e-01       5.745e-01      -3.730e-09           0.000           0.000           1.000       3.818e-04          0.1149
 419       2.044e-01       5.745e-01       2.181e-08          -0.000           0.000           1.000       5.030e-04          0.1583
 420       1.818e-01       5.745e-01       3.641e-08           0.000           0.000           1.000       5.951e-04          0.2095
 421       1.555e-01       5.745e-01       3.446e-07           0.000           0.000           1.000       6.525e-04          0.2740
 422       1.272e-01       5.745e-01       9.930e-07           0.000           0.000           1.000       6.721e-04          0.3605
 423       9.851e-02       5.745e-01      -1.336e-08          -0.000           0.000           1.000       6.525e-04          0.4822
 424       7.104e-02       5.745e-01      -1.739e-06           0.000           0.000           1.000       5.951e-04          0.6694
 425       4.642e-02       5.745e-01       2.241e-06          -0.000           0.000           1.000       5.030e-04          0.9668
 426       2.607e-02       5.745e-01      -2.672e-07          -0.000           0.000           1.000       3.818e-04          1.4908
 427       1.118e-02       5.745e-01      -8.133e-07           0.000           0.000           1.000       2.383e-04          2.6251
 428       2.615e-03       5.745e-01      -4.842e-07           0.000           0.000           1.000       8.101e-05          6.4924
Strip 34
 429       2.391e-01       5.957e-01       3.006e-09           0.000           0.000           1.000       6.705e-05          0.0362
 430       2.339e-01       5.957e-01       5.410e-09          -0.000           0.000           1.000       1.972e-04          0.0638
 431       2.221e-01       5.957e-01      -3.730e-09           0.000           0.000           1.000       3.160e-04          0.0957
 432       2.044e-01       5.957e-01       2.181e-08          -0.000           0.000           1.000       4.164e-04          0.1310
 433       1.818e-01       5.957e-01       3.641e-08           0.000           0.000           1.000       4.925e-04          0.1727
 434       1.555e-01       5.957e-01       3.446e-07           0.000           0.000           1.000       5.401e-04          0.2253
 435       1.272e-01       5.957e-01       9.930e-07           0.000           0.000           1.000       5.562e-04          0.2962
 436       9.851e-02       5.957e-01      -1.336e-08          -0.000           0.000           1.000       5.401e-04          0.3971
 437       7.104e-02       5.957e-01      -1.739e-06           0.000           0.000           1.000       4.925e-04          0.5567
 438       4.642e-02       5.957e-01       2.241e-06          -0.000           0.000           1.000       4.164e-04          0.8200
 439       2.607e-02       5.957e-01      -2.672e-07          -0.000           0.000           1.000       3.160e-04          1.3004
 440       1.118e-02       5.957e-01      -8.133e-07           0.000           0.000           1.000       1.972e-04          2.3467
 441       2.615e-03       5.957e-01      -4.842e-07           0.000           0.000           1.000       6.705e-05          5.8692
Strip 35
 442       2.391e-01       6.129e-01       3.006e-09           0.000           0.000           1.000       5.263e-05          0.0297
 443       2.339e-01       6.129e-01       5.410e-09          -0.000           0.000           1.000       1.548e-04          0.0519
 444       2.221e-01       6.129e-01      -3.730e-09           0.000           0.000           1.000       2.480e-04          0.0770
 445       2.044e-01       6.129e-01       2.181e-08          -0.000           0.000           1.000       3.268e-04          0.1045
 446       1.818e-01       6.129e-01       3.641e-08           0.000           0.000           1.000       3.866e-04          0.1369
 447       1.555e-01       6.129e-01       3.446e-07           0.000           0.000           1.000       4.239e-04          0.1779
 448       1.272e-01       6.129e-01       9.930e-07           0.000           0.000           1.000       4.366e-04          0.2332
 449       9.851e-02       6.129e-01      -1.336e-08          -0.000           0.000           1.000       4.239e-04          0.3119
 450       7.104e-02       6.129e-01      -1.739e-06           0.000           0.000           1.000       3.866e-04          0.4388
 451       4.642e-02       6.129e-01       2.241e-06          -0.000           0.000           1.000       3.268e-04          0.6552
 452       2.607e-02       6.129e-01      -2.672e-07          -0.000           0.000           1.000       2.480e-04          1.0753
 453       1.118e-02       6.129e-01      -8.133e-07           0.000           0.000           1.000       1.548e-04          2.0207
 454       2.615e-03       6.129e-01      -4.842e-07           0.000           0.000           1.000       5.263e-05          5.1580
Strip 36
 455       2.391e-01       6.258e-01       3.006e-09           0.000           0.000           1.000       3.785e-05          0.0234
 456       2.339e-01       6.258e-01       5.410e-09          -0.000           0.000           1.000       1.114e-04          0.0403
 457       2.221e-01       6.258e-01      -3.730e-09           0.000           0.000           1.000       1.784e-04          0.0587
 458       2.044e-01       6.258e-01       2.181e-08          -0.000           0.000           1.000       2.351e-04          0.0789
 459       1.818e-01       6.258e-01       3.641e-08           0.000           0.000           1.000       2.781e-04          0.1026
 460       1.555e-01       6.258e-01       3.446e-07           0.000           0.000           1.000       3.049e-04          0.1328
 461       1.272e-01       6.258e-01       9.930e-07           0.000           0.000           1.000       3.140e-04          0.1734
 462       9.851e-02       6.258e-01      -1.336e-08          -0.000           0.000           1.000       3.049e-04          0.2306
 463       7.104e-02       6.258e-01      -1.739e-06           0.000           0.000           1.000       2.781e-04          0.3234
 464       4.642e-02       6.258e-01       2.241e-06          -0.000           0.000           1.000       2.351e-04          0.4832
 465       2.607e-02       6.258e-01      -2.672e-07          -0.000          -0.000           1.000       1.784e-04          0.8136
 466       1.118e-02       6.258e-01      -8.133e-07           0.000          -0.000           1.000       1.114e-04          1.6291
 467       2.615e-03       6.258e-01      -4.842e-07           0.000           0.000           1.000       3.785e-05          4.3389
Strip 37
 468       2.391e-01       6.345e-01       3.006e-09           0.000           0.000           1.000       2.281e-05          0.0173
 469       2.339e-01       6.345e-01       5.410e-09          -0.000           0.000           1.000       6.712e-05          0.0286
 470       2.221e-01       6.345e-01      -3.730e-09           0.000           0.000           1.000       1.075e-04          0.0407
 471       2.044e-01       6.345e-01       2.181e-08          -0.000           0.000           1.000       1.417e-04          0.0540
 472       1.818e-01       6.345e-01       3.641e-08           0.000           0.000           1.000       1.676e-04          0.0700
 473       1.555e-01       6.345e-01       3.446e-07           0.000           0.000           1.000       1.838e-04          0.0902
 474       1.272e-01       6.345e-01       9.930e-07           0.000           0.000           1.000       1.893e-04          0.1174
 475       9.851e-02       6.345e-01      -1.336e-08          -0.000           0.000           1.000       1.838e-04          0.1553
 476       7.104e-02       6.345e-01      -1.739e-06           0.000           0.000           1.000       1.676e-04          0.2165
 477       4.642e-02       6.345e-01       2.241e-06          -0.000           0.000           1.000       1.417e-04          0.3205
 478       2.607e-02       6.345e-01      -2.672e-07          -0.000           0.000           1.000       1.075e-04          0.5378
 479       1.118e-02       6.345e-01      -8.133e-07           0.000           0.000           1.000       6.712e-05          1.1441
 480       2.615e-03       6.345e-01      -4.842e-07           0.000           0.000           1.000       2.281e-05          3.3761
Strip 38
 481       2.391e-01       6.389e-01       3.006e-09           0.000           0.000           1.000       7.622e-06          0.0110
 482       2.339e-01       6.389e-01       5.410e-09          -0.000           0.000           1.000       2.242e-05          0.0169
 483       2.221e-01       6.389e-01      -3.730e-09           0.000           0.000           1.000       3.592e-05          0.0236
 484       2.044e-01       6.389e-01       2.181e-08          -0.000           0.000           1.000       4.733e-05          0.0312
 485       1.818e-01       6.389e-01       3.641e-08           0.000           0.000           1.000       5.599e-05          0.0403
 486       1.555e-01       6.389e-01       3.446e-07           0.000           0.000           1.000       6.140e-05          0.0519
 487       1.272e-01       6.389e-01       9.930e-07           0.000           0.000           1.000       6.324e-05          0.0675
 488       9.851e-02       6.389e-01      -1.336e-08          -0.000           0.000           1.000       6.140e-05          0.0891
 489       7.104e-02       6.389e-01      -1.739e-06           0.000           0.000           1.000       5.599e-05          0.1238
 490       4.642e-02       6.389e-01       2.241e-06          -0.000           0.000           1.000       4.733e-05          0.1820
 491       2.607e-02       6.389e-01      -2.672e-07          -0.000           0.000           1.000       3.592e-05          0.3015
 492       1.118e-02       6.389e-01      -8.133e-07           0.000           0.000           1.000       2.242e-05          0.6300
 493       2.615e-03       6.389e-01      -4.842e-07           0.000           0.000           1.000       7.622e-06          2.1799










