xflr5 v6.50

Plane Name
T1-44.0 m/s-VLM1
QInf  =   44.000000 m/s
Alpha =    8.000000
Beta  =    0.000°
Phi   =    0.000°
Ctrl  =    0.000
CL    =    0.569961
Cy    =    0.000000
Cd    =    0.029218     ICd   =    0.019083     PCd   =    0.010134
Cl   = -3.91187e-18
Cm   =   -0.135275
ICn   =   -0.000000     PCn   =    0.000000 
XCP   =    0.057372     YCP   =    0.000000     ZCP   =   -0.000000  
XNP   =    0.000000
Bending =   26.697205

Main Wing
  y-span        Chord      Ai         Cl        PCd          ICd        CmGeom    CmAirf@chord/4    XTrtop    XTrBot      XCP       BM
   -0.6389     0.2400    -3.171    0.084040    0.006908    0.004657   -0.015879    0.005371     0.6503    0.6863    0.1861    0.0000
   -0.6345     0.2400    -3.132    0.144604    0.006949    0.007913   -0.027486    0.008907     0.6377    0.7000    0.1884    0.0002
   -0.6258     0.2400    -3.069    0.207885    0.006981    0.011144   -0.040439    0.011775     0.6220    0.7153    0.1934    0.0030
   -0.6129     0.2400    -2.985    0.269081    0.006999    0.014030   -0.053983    0.013531     0.6021    0.7311    0.1997    0.0155
   -0.5957     0.2400    -2.883    0.326814    0.007065    0.016457   -0.067770    0.014179     0.5770    0.7460    0.2066    0.0519
   -0.5745     0.2400    -2.765    0.380240    0.007130    0.018366   -0.081400    0.013908     0.5549    0.7606    0.2134    0.1349
   -0.5493     0.2400    -2.636    0.428811    0.007233    0.019741   -0.094469    0.012985     0.5309    0.7741    0.2197    0.2964
   -0.5204     0.2400    -2.499    0.472234    0.007378    0.020610   -0.106628    0.011687     0.4996    0.7872    0.2253    0.5776
   -0.4880     0.2400    -2.360    0.510451    0.007757    0.021037   -0.117633    0.010250     0.4369    0.8005    0.2299    1.0274
   -0.4522     0.2400    -2.224    0.543598    0.008777    0.021113   -0.127363    0.008841     0.2938    0.8159    0.2337    1.7012
   -0.4133     0.2400    -2.096    0.571957    0.009889    0.020935   -0.135770    0.007563     0.1812    0.8313    0.2368    2.6581
   -0.3716     0.2400    -1.979    0.595892    0.010579    0.020594   -0.142879    0.006462     0.1225    0.8443    0.2392    3.9585
   -0.3273     0.2400    -1.876    0.615801    0.011026    0.020170   -0.148785    0.005549     0.0924    0.8551    0.2410    5.6611
   -0.2808     0.2400    -1.787    0.632074    0.011345    0.019724   -0.153599    0.004815     0.0744    0.8645    0.2424    7.8198
   -0.2324     0.2400    -1.714    0.645069    0.011553    0.019301   -0.157428    0.004242     0.0670    0.8727    0.2434   10.4814
   -0.1825     0.2400    -1.655    0.655091    0.011713    0.018933   -0.160370    0.003810     0.0612    0.8789    0.2442   13.6825
   -0.1312     0.2400    -1.612    0.662389    0.011830    0.018642   -0.162506    0.003503     0.0570    0.8835    0.2447   17.4477
   -0.0791     0.2400    -1.583    0.667151    0.011906    0.018441   -0.163897    0.003306     0.0543    0.8865    0.2450   21.7875
   -0.0264     0.2400    -1.569    0.669501    0.011943    0.018339   -0.164582    0.003209     0.0530    0.8880    0.2452   26.6972
    0.0264     0.2400    -1.569    0.669501    0.011943    0.018339   -0.164582    0.003209     0.0530    0.8880    0.2452   26.6972
    0.0791     0.2400    -1.583    0.667151    0.011906    0.018441   -0.163897    0.003306     0.0543    0.8865    0.2450   21.7875
    0.1312     0.2400    -1.612    0.662389    0.011830    0.018642   -0.162506    0.003503     0.0570    0.8835    0.2447   17.4477
    0.1825     0.2400    -1.655    0.655091    0.011713    0.018933   -0.160370    0.003810     0.0612    0.8789    0.2442   13.6825
    0.2324     0.2400    -1.714    0.645069    0.011553    0.019301   -0.157428    0.004242     0.0670    0.8727    0.2434   10.4814
    0.2808     0.2400    -1.787    0.632074    0.011345    0.019724   -0.153599    0.004815     0.0744    0.8645    0.2424    7.8198
    0.3273     0.2400    -1.876    0.615801    0.011026    0.020170   -0.148785    0.005549     0.0924    0.8551    0.2410    5.6611
    0.3716     0.2400    -1.979    0.595892    0.010579    0.020594   -0.142879    0.006462     0.1225    0.8443    0.2392    3.9585
    0.4133     0.2400    -2.096    0.571957    0.009889    0.020935   -0.135770    0.007563     0.1812    0.8313    0.2368    2.6581
    0.4522     0.2400    -2.224    0.543598    0.008777    0.021113   -0.127363    0.008841     0.2938    0.8159    0.2337    1.7012
    0.4880     0.2400    -2.360    0.510451    0.007757    0.021037   -0.117633    0.010250     0.4369    0.8005    0.2299    1.0274
    0.5204     0.2400    -2.499    0.472234    0.007378    0.020610   -0.106628    0.011687     0.4996    0.7872    0.2253    0.5776
    0.5493     0.2400    -2.636    0.428811    0.007233    0.019741   -0.094469    0.012985     0.5309    0.7741    0.2197    0.2964
    0.5745     0.2400    -2.765    0.380240    0.007130    0.018366   -0.081400    0.013908     0.5549    0.7606    0.2134    0.1349
    0.5957     0.2400    -2.883    0.326814    0.007065    0.016457   -0.067770    0.014179     0.5770    0.7460    0.2066    0.0519
    0.6129     0.2400    -2.985    0.269081    0.006999    0.014030   -0.053983    0.013531     0.6021    0.7311    0.1997    0.0155
    0.6258     0.2400    -3.069    0.207885    0.006981    0.011144   -0.040439    0.011775     0.6220    0.7153    0.1934    0.0030
    0.6345     0.2400    -3.132    0.144604    0.006949    0.007913   -0.027486    0.008907     0.6377    0.7000    0.1884    0.0002
    0.6389     0.2400    -3.171    0.084040    0.006908    0.004657   -0.015879    0.005371     0.6503    0.6863    0.1861    0.0000


Main Wing Cp Coefficients
 Panel     CtrlPt.x        CtrlPt.y        CtrlPt.z       Nx      Ny       Nz        Area       Cp
Main WingCp Coefficients
Strip 1
   0       2.391e-01      -6.389e-01       3.006e-09           0.000           0.000           1.000       7.622e-06          0.0065
   1       2.339e-01      -6.389e-01       5.410e-09          -0.000           0.000           1.000       2.242e-05          0.0099
   2       2.221e-01      -6.389e-01      -3.730e-09           0.000           0.000           1.000       3.592e-05          0.0139
   3       2.044e-01      -6.389e-01       2.181e-08          -0.000           0.000           1.000       4.733e-05          0.0183
   4       1.818e-01      -6.389e-01       3.641e-08           0.000           0.000           1.000       5.599e-05          0.0237
   5       1.555e-01      -6.389e-01       3.446e-07           0.000           0.000           1.000       6.140e-05          0.0305
   6       1.272e-01      -6.389e-01       9.930e-07           0.000           0.000           1.000       6.324e-05          0.0397
   7       9.851e-02      -6.389e-01      -1.336e-08          -0.000           0.000           1.000       6.140e-05          0.0521
   8       7.104e-02      -6.389e-01      -1.739e-06           0.000           0.000           1.000       5.599e-05          0.0729
   9       4.642e-02      -6.389e-01       2.241e-06          -0.000           0.000           1.000       4.733e-05          0.1068
  10       2.607e-02      -6.389e-01      -2.672e-07          -0.000           0.000           1.000       3.592e-05          0.1769
  11       1.118e-02      -6.389e-01      -8.133e-07           0.000           0.000           1.000       2.242e-05          0.3698
  12       2.615e-03      -6.389e-01      -4.842e-07           0.000           0.000           1.000       7.622e-06          1.2801
Strip 2
  13       2.391e-01      -6.345e-01       3.006e-09           0.000           0.000           1.000       2.281e-05          0.0102
  14       2.339e-01      -6.345e-01       5.410e-09          -0.000           0.000           1.000       6.712e-05          0.0168
  15       2.221e-01      -6.345e-01      -3.730e-09           0.000           0.000           1.000       1.075e-04          0.0239
  16       2.044e-01      -6.345e-01       2.181e-08          -0.000           0.000           1.000       1.417e-04          0.0317
  17       1.818e-01      -6.345e-01       3.641e-08           0.000           0.000           1.000       1.676e-04          0.0411
  18       1.555e-01      -6.345e-01       3.446e-07           0.000           0.000           1.000       1.838e-04          0.0530
  19       1.272e-01      -6.345e-01       9.930e-07           0.000           0.000           1.000       1.893e-04          0.0690
  20       9.851e-02      -6.345e-01      -1.336e-08          -0.000           0.000           1.000       1.838e-04          0.0909
  21       7.104e-02      -6.345e-01      -1.739e-06           0.000           0.000           1.000       1.676e-04          0.1274
  22       4.642e-02      -6.345e-01       2.241e-06          -0.000           0.000           1.000       1.417e-04          0.1881
  23       2.607e-02      -6.345e-01      -2.672e-07          -0.000           0.000           1.000       1.075e-04          0.3157
  24       1.118e-02      -6.345e-01      -8.133e-07           0.000           0.000           1.000       6.712e-05          0.6716
  25       2.615e-03      -6.345e-01      -4.842e-07           0.000           0.000           1.000       2.281e-05          1.9825
Strip 3
  26       2.391e-01      -6.258e-01       3.006e-09           0.000           0.000           1.000       3.785e-05          0.0138
  27       2.339e-01      -6.258e-01       5.410e-09          -0.000           0.000           1.000       1.114e-04          0.0237
  28       2.221e-01      -6.258e-01      -3.730e-09           0.000           0.000           1.000       1.784e-04          0.0345
  29       2.044e-01      -6.258e-01       2.181e-08          -0.000           0.000           1.000       2.351e-04          0.0463
  30       1.818e-01      -6.258e-01       3.641e-08           0.000           0.000           1.000       2.781e-04          0.0602
  31       1.555e-01      -6.258e-01       3.446e-07           0.000           0.000           1.000       3.049e-04          0.0780
  32       1.272e-01      -6.258e-01       9.930e-07           0.000           0.000           1.000       3.140e-04          0.1019
  33       9.851e-02      -6.258e-01      -1.336e-08          -0.000           0.000           1.000       3.049e-04          0.1351
  34       7.104e-02      -6.258e-01      -1.739e-06           0.000           0.000           1.000       2.781e-04          0.1902
  35       4.642e-02      -6.258e-01       2.241e-06          -0.000           0.000           1.000       2.351e-04          0.2836
  36       2.607e-02      -6.258e-01      -2.672e-07          -0.000           0.000           1.000       1.784e-04          0.4776
  37       1.118e-02      -6.258e-01      -8.133e-07           0.000           0.000           1.000       1.114e-04          0.9564
  38       2.615e-03      -6.258e-01      -4.842e-07           0.000           0.000           1.000       3.785e-05          2.5479
Strip 4
  39       2.391e-01      -6.129e-01       3.006e-09           0.000           0.000           1.000       5.263e-05          0.0174
  40       2.339e-01      -6.129e-01       5.410e-09          -0.000           0.000           1.000       1.548e-04          0.0305
  41       2.221e-01      -6.129e-01      -3.730e-09           0.000          -0.000           1.000       2.480e-04          0.0452
  42       2.044e-01      -6.129e-01       2.181e-08          -0.000           0.000           1.000       3.268e-04          0.0614
  43       1.818e-01      -6.129e-01       3.641e-08           0.000          -0.000           1.000       3.866e-04          0.0804
  44       1.555e-01      -6.129e-01       3.446e-07           0.000           0.000           1.000       4.239e-04          0.1045
  45       1.272e-01      -6.129e-01       9.930e-07           0.000           0.000           1.000       4.366e-04          0.1371
  46       9.851e-02      -6.129e-01      -1.336e-08          -0.000           0.000           1.000       4.239e-04          0.1828
  47       7.104e-02      -6.129e-01      -1.739e-06           0.000           0.000           1.000       3.866e-04          0.2580
  48       4.642e-02      -6.129e-01       2.241e-06          -0.000           0.000           1.000       3.268e-04          0.3846
  49       2.607e-02      -6.129e-01      -2.672e-07          -0.000           0.000           1.000       2.480e-04          0.6312
  50       1.118e-02      -6.129e-01      -8.133e-07           0.000           0.000           1.000       1.548e-04          1.1863
  51       2.615e-03      -6.129e-01      -4.842e-07           0.000           0.000           1.000       5.263e-05          3.0287
Strip 5
  52       2.391e-01      -5.957e-01       3.006e-09           0.000           0.000           1.000       6.705e-05          0.0213
  53       2.339e-01      -5.957e-01       5.410e-09          -0.000           0.000           1.000       1.972e-04          0.0375
  54       2.221e-01      -5.957e-01      -3.730e-09           0.000           0.000           1.000       3.160e-04          0.0562
  55       2.044e-01      -5.957e-01       2.181e-08          -0.000           0.000           1.000       4.164e-04          0.0769
  56       1.818e-01      -5.957e-01       3.641e-08           0.000          -0.000           1.000       4.925e-04          0.1014
  57       1.555e-01      -5.957e-01       3.446e-07           0.000           0.000           1.000       5.401e-04          0.1324
  58       1.272e-01      -5.957e-01       9.930e-07           0.000          -0.000           1.000       5.562e-04          0.1740
  59       9.851e-02      -5.957e-01      -1.336e-08          -0.000           0.000           1.000       5.401e-04          0.2328
  60       7.104e-02      -5.957e-01      -1.739e-06           0.000           0.000           1.000       4.925e-04          0.3272
  61       4.642e-02      -5.957e-01       2.241e-06          -0.000           0.000           1.000       4.164e-04          0.4813
  62       2.607e-02      -5.957e-01      -2.672e-07          -0.000           0.000           1.000       3.160e-04          0.7634
  63       1.118e-02      -5.957e-01      -8.133e-07           0.000           0.000           1.000       1.972e-04          1.3777
  64       2.615e-03      -5.957e-01      -4.842e-07           0.000           0.000           1.000       6.705e-05          3.4463
Strip 6
  65       2.391e-01      -5.745e-01       3.006e-09           0.000           0.000           1.000       8.101e-05          0.0253
  66       2.339e-01      -5.745e-01       5.410e-09          -0.000           0.000           1.000       2.383e-04          0.0448
  67       2.221e-01      -5.745e-01      -3.730e-09           0.000           0.000           1.000       3.818e-04          0.0675
  68       2.044e-01      -5.745e-01       2.181e-08          -0.000           0.000           1.000       5.030e-04          0.0929
  69       1.818e-01      -5.745e-01       3.641e-08           0.000           0.000           1.000       5.951e-04          0.1230
  70       1.555e-01      -5.745e-01       3.446e-07           0.000           0.000           1.000       6.525e-04          0.1610
  71       1.272e-01      -5.745e-01       9.930e-07           0.000           0.000           1.000       6.721e-04          0.2118
  72       9.851e-02      -5.745e-01      -1.336e-08          -0.000           0.000           1.000       6.525e-04          0.2827
  73       7.104e-02      -5.745e-01      -1.739e-06           0.000           0.000           1.000       5.951e-04          0.3934
  74       4.642e-02      -5.745e-01       2.241e-06          -0.000           0.000           1.000       5.030e-04          0.5676
  75       2.607e-02      -5.745e-01      -2.672e-07          -0.000           0.000           1.000       3.818e-04          0.8752
  76       1.118e-02      -5.745e-01      -8.133e-07           0.000           0.000           1.000       2.383e-04          1.5411
  77       2.615e-03      -5.745e-01      -4.842e-07           0.000           0.000           1.000       8.101e-05          3.8122
Strip 7
  78       2.391e-01      -5.493e-01       3.006e-09           0.000           0.000           1.000       9.442e-05          0.0295
  79       2.339e-01      -5.493e-01       5.410e-09          -0.000           0.000           1.000       2.778e-04          0.0522
  80       2.221e-01      -5.493e-01      -3.730e-09           0.000          -0.000           1.000       4.450e-04          0.0789
  81       2.044e-01      -5.493e-01       2.181e-08          -0.000           0.000           1.000       5.863e-04          0.1090
  82       1.818e-01      -5.493e-01       3.641e-08           0.000           0.000           1.000       6.936e-04          0.1447
  83       1.555e-01      -5.493e-01       3.446e-07           0.000           0.000           1.000       7.605e-04          0.1894
  84       1.272e-01      -5.493e-01       9.930e-07           0.000          -0.000           1.000       7.833e-04          0.2486
  85       9.851e-02      -5.493e-01      -1.336e-08          -0.000           0.000           1.000       7.605e-04          0.3301
  86       7.104e-02      -5.493e-01      -1.739e-06           0.000           0.000           1.000       6.936e-04          0.4533
  87       4.642e-02      -5.493e-01       2.241e-06          -0.000           0.000           1.000       5.863e-04          0.6421
  88       2.607e-02      -5.493e-01      -2.672e-07          -0.000           0.000           1.000       4.450e-04          0.9702
  89       1.118e-02      -5.493e-01      -8.133e-07           0.000           0.000           1.000       2.778e-04          1.6825
  90       2.615e-03      -5.493e-01      -4.842e-07           0.000           0.000           1.000       9.442e-05          4.1336
Strip 8
  91       2.391e-01      -5.204e-01       3.006e-09           0.000           0.000           1.000       1.072e-04          0.0337
  92       2.339e-01      -5.204e-01       5.410e-09          -0.000           0.000           1.000       3.153e-04          0.0596
  93       2.221e-01      -5.204e-01      -3.730e-09           0.000           0.000           1.000       5.051e-04          0.0903
  94       2.044e-01      -5.204e-01       2.181e-08          -0.000          -0.000           1.000       6.656e-04          0.1249
  95       1.818e-01      -5.204e-01       3.641e-08           0.000           0.000           1.000       7.873e-04          0.1657
  96       1.555e-01      -5.204e-01       3.446e-07           0.000           0.000           1.000       8.633e-04          0.2166
  97       1.272e-01      -5.204e-01       9.930e-07           0.000           0.000           1.000       8.892e-04          0.2831
  98       9.851e-02      -5.204e-01      -1.336e-08          -0.000          -0.000           1.000       8.633e-04          0.3730
  99       7.104e-02      -5.204e-01      -1.739e-06           0.000           0.000           1.000       7.873e-04          0.5056
 100       4.642e-02      -5.204e-01       2.241e-06          -0.000          -0.000           1.000       6.656e-04          0.7058
 101       2.607e-02      -5.204e-01      -2.672e-07          -0.000           0.000           1.000       5.051e-04          1.0514
 102       1.118e-02      -5.204e-01      -8.133e-07           0.000           0.000           1.000       3.153e-04          1.8051
 103       2.615e-03      -5.204e-01      -4.842e-07           0.000           0.000           1.000       1.072e-04          4.4155
Strip 9
 104       2.391e-01      -4.880e-01       3.006e-09           0.000           0.000           1.000       1.192e-04          0.0377
 105       2.339e-01      -4.880e-01       5.410e-09          -0.000           0.000           1.000       3.507e-04          0.0668
 106       2.221e-01      -4.880e-01      -3.730e-09           0.000           0.000           1.000       5.618e-04          0.1011
 107       2.044e-01      -4.880e-01       2.181e-08          -0.000           0.000           1.000       7.403e-04          0.1398
 108       1.818e-01      -4.880e-01       3.641e-08           0.000          -0.000           1.000       8.757e-04          0.1854
 109       1.555e-01      -4.880e-01       3.446e-07           0.000          -0.000           1.000       9.602e-04          0.2416
 110       1.272e-01      -4.880e-01       9.930e-07           0.000           0.000           1.000       9.890e-04          0.3141
 111       9.851e-02      -4.880e-01      -1.336e-08          -0.000          -0.000           1.000       9.602e-04          0.4106
 112       7.104e-02      -4.880e-01      -1.739e-06           0.000           0.000           1.000       8.757e-04          0.5506
 113       4.642e-02      -4.880e-01       2.241e-06          -0.000          -0.000           1.000       7.403e-04          0.7600
 114       2.607e-02      -4.880e-01      -2.672e-07          -0.000          -0.000           1.000       5.618e-04          1.1209
 115       1.118e-02      -4.880e-01      -8.133e-07           0.000          -0.000           1.000       3.507e-04          1.9114
 116       2.615e-03      -4.880e-01      -4.842e-07           0.000           0.000           1.000       1.192e-04          4.6616
Strip 10
 117       2.391e-01      -4.522e-01       3.006e-09           0.000           0.000           1.000       1.304e-04          0.0414
 118       2.339e-01      -4.522e-01       5.410e-09          -0.000           0.000           1.000       3.837e-04          0.0734
 119       2.221e-01      -4.522e-01      -3.730e-09           0.000          -0.000           1.000       6.147e-04          0.1111
 120       2.044e-01      -4.522e-01       2.181e-08          -0.000          -0.000           1.000       8.099e-04          0.1536
 121       1.818e-01      -4.522e-01       3.641e-08           0.000           0.000           1.000       9.581e-04          0.2032
 122       1.555e-01      -4.522e-01       3.446e-07           0.000           0.000           1.000       1.051e-03          0.2639
 123       1.272e-01      -4.522e-01       9.930e-07           0.000           0.000           1.000       1.082e-03          0.3413
 124       9.851e-02      -4.522e-01      -1.336e-08          -0.000           0.000           1.000       1.051e-03          0.4430
 125       7.104e-02      -4.522e-01      -1.739e-06           0.000           0.000           1.000       9.581e-04          0.5889
 126       4.642e-02      -4.522e-01       2.241e-06          -0.000           0.000           1.000       8.099e-04          0.8060
 127       2.607e-02      -4.522e-01      -2.672e-07          -0.000           0.000           1.000       6.147e-04          1.1804
 128       1.118e-02      -4.522e-01      -8.133e-07           0.000          -0.000           1.000       3.837e-04          2.0031
 129       2.615e-03      -4.522e-01      -4.842e-07           0.000           0.000           1.000       1.304e-04          4.8752
Strip 11
 130       2.391e-01      -4.133e-01       3.006e-09           0.000           0.000           1.000       1.407e-04          0.0448
 131       2.339e-01      -4.133e-01       5.410e-09          -0.000           0.000           1.000       4.141e-04          0.0794
 132       2.221e-01      -4.133e-01      -3.730e-09           0.000          -0.000           1.000       6.633e-04          0.1200
 133       2.044e-01      -4.133e-01       2.181e-08          -0.000           0.000           1.000       8.740e-04          0.1657
 134       1.818e-01      -4.133e-01       3.641e-08           0.000           0.000           1.000       1.034e-03          0.2188
 135       1.555e-01      -4.133e-01       3.446e-07           0.000           0.000           1.000       1.134e-03          0.2832
 136       1.272e-01      -4.133e-01       9.930e-07           0.000           0.000           1.000       1.168e-03          0.3645
 137       9.851e-02      -4.133e-01      -1.336e-08          -0.000           0.000           1.000       1.134e-03          0.4703
 138       7.104e-02      -4.133e-01      -1.739e-06           0.000           0.000           1.000       1.034e-03          0.6211
 139       4.642e-02      -4.133e-01       2.241e-06          -0.000           0.000           1.000       8.740e-04          0.8448
 140       2.607e-02      -4.133e-01      -2.672e-07          -0.000           0.000           1.000       6.633e-04          1.2309
 141       1.118e-02      -4.133e-01      -8.133e-07           0.000           0.000           1.000       4.141e-04          2.0817
 142       2.615e-03      -4.133e-01      -4.842e-07           0.000           0.000           1.000       1.407e-04          5.0589
Strip 12
 143       2.391e-01      -3.716e-01       3.006e-09           0.000           0.000           1.000       1.501e-04          0.0477
 144       2.339e-01      -3.716e-01       5.410e-09          -0.000           0.000           1.000       4.416e-04          0.0846
 145       2.221e-01      -3.716e-01      -3.730e-09           0.000           0.000           1.000       7.074e-04          0.1278
 146       2.044e-01      -3.716e-01       2.181e-08          -0.000          -0.000           1.000       9.322e-04          0.1761
 147       1.818e-01      -3.716e-01       3.641e-08           0.000           0.000           1.000       1.103e-03          0.2321
 148       1.555e-01      -3.716e-01       3.446e-07           0.000           0.000           1.000       1.209e-03          0.2995
 149       1.272e-01      -3.716e-01       9.930e-07           0.000          -0.000           1.000       1.245e-03          0.3839
 150       9.851e-02      -3.716e-01      -1.336e-08          -0.000           0.000           1.000       1.209e-03          0.4932
 151       7.104e-02      -3.716e-01      -1.739e-06           0.000           0.000           1.000       1.103e-03          0.6479
 152       4.642e-02      -3.716e-01       2.241e-06          -0.000          -0.000           1.000       9.322e-04          0.8773
 153       2.607e-02      -3.716e-01      -2.672e-07          -0.000          -0.000           1.000       7.074e-04          1.2735
 154       1.118e-02      -3.716e-01      -8.133e-07           0.000           0.000           1.000       4.416e-04          2.1484
 155       2.615e-03      -3.716e-01      -4.842e-07           0.000           0.000           1.000       1.501e-04          5.2154
Strip 13
 156       2.391e-01      -3.273e-01       3.006e-09           0.000           0.000           1.000       1.585e-04          0.0502
 157       2.339e-01      -3.273e-01       5.410e-09          -0.000           0.000           1.000       4.661e-04          0.0889
 158       2.221e-01      -3.273e-01      -3.730e-09           0.000           0.000           1.000       7.467e-04          0.1343
 159       2.044e-01      -3.273e-01       2.181e-08          -0.000           0.000           1.000       9.839e-04          0.1849
 160       1.818e-01      -3.273e-01       3.641e-08           0.000           0.000           1.000       1.164e-03          0.2432
 161       1.555e-01      -3.273e-01       3.446e-07           0.000           0.000           1.000       1.276e-03          0.3131
 162       1.272e-01      -3.273e-01       9.930e-07           0.000           0.000           1.000       1.315e-03          0.4000
 163       9.851e-02      -3.273e-01      -1.336e-08          -0.000           0.000           1.000       1.276e-03          0.5120
 164       7.104e-02      -3.273e-01      -1.739e-06           0.000           0.000           1.000       1.164e-03          0.6701
 165       4.642e-02      -3.273e-01       2.241e-06          -0.000           0.000           1.000       9.839e-04          0.9043
 166       2.607e-02      -3.273e-01      -2.672e-07          -0.000           0.000           1.000       7.467e-04          1.3090
 167       1.118e-02      -3.273e-01      -8.133e-07           0.000           0.000           1.000       4.661e-04          2.2043
 168       2.615e-03      -3.273e-01      -4.842e-07           0.000           0.000           1.000       1.585e-04          5.3468
Strip 14
 169       2.391e-01      -2.808e-01       3.006e-09           0.000           0.000           1.000       1.657e-04          0.0523
 170       2.339e-01      -2.808e-01       5.410e-09          -0.000           0.000           1.000       4.875e-04          0.0925
 171       2.221e-01      -2.808e-01      -3.730e-09           0.000          -0.000           1.000       7.809e-04          0.1396
 172       2.044e-01      -2.808e-01       2.181e-08          -0.000           0.000           1.000       1.029e-03          0.1921
 173       1.818e-01      -2.808e-01       3.641e-08           0.000           0.000           1.000       1.217e-03          0.2523
 174       1.555e-01      -2.808e-01       3.446e-07           0.000           0.000           1.000       1.335e-03          0.3241
 175       1.272e-01      -2.808e-01       9.930e-07           0.000          -0.000           1.000       1.375e-03          0.4131
 176       9.851e-02      -2.808e-01      -1.336e-08          -0.000           0.000           1.000       1.335e-03          0.5273
 177       7.104e-02      -2.808e-01      -1.739e-06           0.000           0.000           1.000       1.217e-03          0.6881
 178       4.642e-02      -2.808e-01       2.241e-06          -0.000           0.000           1.000       1.029e-03          0.9263
 179       2.607e-02      -2.808e-01      -2.672e-07          -0.000           0.000           1.000       7.809e-04          1.3382
 180       1.118e-02      -2.808e-01      -8.133e-07           0.000           0.000           1.000       4.875e-04          2.2504
 181       2.615e-03      -2.808e-01      -4.842e-07           0.000           0.000           1.000       1.657e-04          5.4554
Strip 15
 182       2.391e-01      -2.324e-01       3.006e-09           0.000           0.000           1.000       1.718e-04          0.0539
 183       2.339e-01      -2.324e-01       5.410e-09          -0.000           0.000           1.000       5.055e-04          0.0954
 184       2.221e-01      -2.324e-01      -3.730e-09           0.000           0.000           1.000       8.098e-04          0.1439
 185       2.044e-01      -2.324e-01       2.181e-08          -0.000          -0.000           1.000       1.067e-03          0.1978
 186       1.818e-01      -2.324e-01       3.641e-08           0.000           0.000           1.000       1.262e-03          0.2595
 187       1.555e-01      -2.324e-01       3.446e-07           0.000           0.000           1.000       1.384e-03          0.3329
 188       1.272e-01      -2.324e-01       9.930e-07           0.000           0.000           1.000       1.426e-03          0.4235
 189       9.851e-02      -2.324e-01      -1.336e-08          -0.000          -0.000           1.000       1.384e-03          0.5395
 190       7.104e-02      -2.324e-01      -1.739e-06           0.000           0.000           1.000       1.262e-03          0.7025
 191       4.642e-02      -2.324e-01       2.241e-06          -0.000           0.000           1.000       1.067e-03          0.9439
 192       2.607e-02      -2.324e-01      -2.672e-07          -0.000           0.000           1.000       8.098e-04          1.3616
 193       1.118e-02      -2.324e-01      -8.133e-07           0.000          -0.000           1.000       5.055e-04          2.2875
 194       2.615e-03      -2.324e-01      -4.842e-07           0.000           0.000           1.000       1.718e-04          5.5429
Strip 16
 195       2.391e-01      -1.825e-01       3.006e-09           0.000           0.000           1.000       1.768e-04          0.0552
 196       2.339e-01      -1.825e-01       5.410e-09          -0.000           0.000           1.000       5.201e-04          0.0976
 197       2.221e-01      -1.825e-01      -3.730e-09           0.000          -0.000           1.000       8.331e-04          0.1472
 198       2.044e-01      -1.825e-01       2.181e-08          -0.000           0.000           1.000       1.098e-03          0.2022
 199       1.818e-01      -1.825e-01       3.641e-08           0.000           0.000           1.000       1.299e-03          0.2651
 200       1.555e-01      -1.825e-01       3.446e-07           0.000           0.000           1.000       1.424e-03          0.3396
 201       1.272e-01      -1.825e-01       9.930e-07           0.000           0.000           1.000       1.467e-03          0.4314
 202       9.851e-02      -1.825e-01      -1.336e-08          -0.000           0.000           1.000       1.424e-03          0.5488
 203       7.104e-02      -1.825e-01      -1.739e-06           0.000           0.000           1.000       1.299e-03          0.7135
 204       4.642e-02      -1.825e-01       2.241e-06          -0.000          -0.000           1.000       1.098e-03          0.9575
 205       2.607e-02      -1.825e-01      -2.672e-07          -0.000           0.000           1.000       8.331e-04          1.3797
 206       1.118e-02      -1.825e-01      -8.133e-07           0.000           0.000           1.000       5.201e-04          2.3163
 207       2.615e-03      -1.825e-01      -4.842e-07           0.000           0.000           1.000       1.768e-04          5.6109
Strip 17
 208       2.391e-01      -1.312e-01       3.006e-09           0.000           0.000           1.000       1.805e-04          0.0561
 209       2.339e-01      -1.312e-01       5.410e-09          -0.000           0.000           1.000       5.311e-04          0.0992
 210       2.221e-01      -1.312e-01      -3.730e-09           0.000           0.000           1.000       8.508e-04          0.1496
 211       2.044e-01      -1.312e-01       2.181e-08          -0.000           0.000           1.000       1.121e-03          0.2054
 212       1.818e-01      -1.312e-01       3.641e-08           0.000          -0.000           1.000       1.326e-03          0.2691
 213       1.555e-01      -1.312e-01       3.446e-07           0.000           0.000           1.000       1.454e-03          0.3444
 214       1.272e-01      -1.312e-01       9.930e-07           0.000           0.000           1.000       1.498e-03          0.4372
 215       9.851e-02      -1.312e-01      -1.336e-08          -0.000           0.000           1.000       1.454e-03          0.5556
 216       7.104e-02      -1.312e-01      -1.739e-06           0.000           0.000           1.000       1.326e-03          0.7215
 217       4.642e-02      -1.312e-01       2.241e-06          -0.000           0.000           1.000       1.121e-03          0.9674
 218       2.607e-02      -1.312e-01      -2.672e-07          -0.000          -0.000           1.000       8.508e-04          1.3929
 219       1.118e-02      -1.312e-01      -8.133e-07           0.000          -0.000           1.000       5.311e-04          2.3374
 220       2.615e-03      -1.312e-01      -4.842e-07           0.000           0.000           1.000       1.805e-04          5.6607
Strip 18
 221       2.391e-01      -7.910e-02       3.006e-09           0.000           0.000           1.000       1.830e-04          0.0567
 222       2.339e-01      -7.910e-02       5.410e-09          -0.000           0.000           1.000       5.385e-04          0.1003
 223       2.221e-01      -7.910e-02      -3.730e-09           0.000           0.000           1.000       8.626e-04          0.1511
 224       2.044e-01      -7.910e-02       2.181e-08          -0.000          -0.000           1.000       1.137e-03          0.2075
 225       1.818e-01      -7.910e-02       3.641e-08           0.000           0.000           1.000       1.345e-03          0.2717
 226       1.555e-01      -7.910e-02       3.446e-07           0.000           0.000           1.000       1.474e-03          0.3476
 227       1.272e-01      -7.910e-02       9.930e-07           0.000          -0.000           1.000       1.518e-03          0.4409
 228       9.851e-02      -7.910e-02      -1.336e-08          -0.000           0.000           1.000       1.474e-03          0.5600
 229       7.104e-02      -7.910e-02      -1.739e-06           0.000           0.000           1.000       1.345e-03          0.7268
 230       4.642e-02      -7.910e-02       2.241e-06          -0.000          -0.000           1.000       1.137e-03          0.9738
 231       2.607e-02      -7.910e-02      -2.672e-07          -0.000          -0.000           1.000       8.626e-04          1.4016
 232       1.118e-02      -7.910e-02      -8.133e-07           0.000           0.000           1.000       5.385e-04          2.3512
 233       2.615e-03      -7.910e-02      -4.842e-07           0.000           0.000           1.000       1.830e-04          5.6934
Strip 19
 234       2.391e-01      -2.643e-02       3.006e-09           0.000           0.000           1.000       1.843e-04          0.0570
 235       2.339e-01      -2.643e-02       5.410e-09          -0.000           0.000           1.000       5.422e-04          0.1008
 236       2.221e-01      -2.643e-02      -3.730e-09           0.000           0.000           1.000       8.685e-04          0.1519
 237       2.044e-01      -2.643e-02       2.181e-08          -0.000           0.000           1.000       1.144e-03          0.2085
 238       1.818e-01      -2.643e-02       3.641e-08           0.000           0.000           1.000       1.354e-03          0.2730
 239       1.555e-01      -2.643e-02       3.446e-07           0.000           0.000           1.000       1.484e-03          0.3492
 240       1.272e-01      -2.643e-02       9.930e-07           0.000           0.000           1.000       1.529e-03          0.4427
 241       9.851e-02      -2.643e-02      -1.336e-08          -0.000          -0.000           1.000       1.484e-03          0.5621
 242       7.104e-02      -2.643e-02      -1.739e-06           0.000           0.000           1.000       1.354e-03          0.7293
 243       4.642e-02      -2.643e-02       2.241e-06          -0.000           0.000           1.000       1.144e-03          0.9770
 244       2.607e-02      -2.643e-02      -2.672e-07          -0.000           0.000           1.000       8.685e-04          1.4059
 245       1.118e-02      -2.643e-02      -8.133e-07           0.000           0.000           1.000       5.422e-04          2.3580
 246       2.615e-03      -2.643e-02      -4.842e-07           0.000           0.000           1.000       1.843e-04          5.7096
Strip 20
 247       2.391e-01       2.643e-02       3.006e-09           0.000           0.000           1.000       1.843e-04          0.0570
 248       2.339e-01       2.643e-02       5.410e-09          -0.000           0.000           1.000       5.422e-04          0.1008
 249       2.221e-01       2.643e-02      -3.730e-09           0.000           0.000           1.000       8.685e-04          0.1519
 250       2.044e-01       2.643e-02       2.181e-08          -0.000          -0.000           1.000       1.144e-03          0.2085
 251       1.818e-01       2.643e-02       3.641e-08           0.000           0.000           1.000       1.354e-03          0.2730
 252       1.555e-01       2.643e-02       3.446e-07           0.000           0.000           1.000       1.484e-03          0.3492
 253       1.272e-01       2.643e-02       9.930e-07           0.000           0.000           1.000       1.529e-03          0.4427
 254       9.851e-02       2.643e-02      -1.336e-08          -0.000           0.000           1.000       1.484e-03          0.5621
 255       7.104e-02       2.643e-02      -1.739e-06           0.000           0.000           1.000       1.354e-03          0.7293
 256       4.642e-02       2.643e-02       2.241e-06          -0.000           0.000           1.000       1.144e-03          0.9770
 257       2.607e-02       2.643e-02      -2.672e-07          -0.000           0.000           1.000       8.685e-04          1.4059
 258       1.118e-02       2.643e-02      -8.133e-07           0.000           0.000           1.000       5.422e-04          2.3580
 259       2.615e-03       2.643e-02      -4.842e-07           0.000           0.000           1.000       1.843e-04          5.7096
Strip 21
 260       2.391e-01       7.910e-02       3.006e-09           0.000           0.000           1.000       1.830e-04          0.0567
 261       2.339e-01       7.910e-02       5.410e-09          -0.000          -0.000           1.000       5.385e-04          0.1003
 262       2.221e-01       7.910e-02      -3.730e-09           0.000           0.000           1.000       8.626e-04          0.1511
 263       2.044e-01       7.910e-02       2.181e-08          -0.000           0.000           1.000       1.137e-03          0.2075
 264       1.818e-01       7.910e-02       3.641e-08           0.000          -0.000           1.000       1.345e-03          0.2717
 265       1.555e-01       7.910e-02       3.446e-07           0.000           0.000           1.000       1.474e-03          0.3476
 266       1.272e-01       7.910e-02       9.930e-07           0.000           0.000           1.000       1.518e-03          0.4409
 267       9.851e-02       7.910e-02      -1.336e-08          -0.000          -0.000           1.000       1.474e-03          0.5600
 268       7.104e-02       7.910e-02      -1.739e-06           0.000           0.000           1.000       1.345e-03          0.7268
 269       4.642e-02       7.910e-02       2.241e-06          -0.000           0.000           1.000       1.137e-03          0.9738
 270       2.607e-02       7.910e-02      -2.672e-07          -0.000           0.000           1.000       8.626e-04          1.4016
 271       1.118e-02       7.910e-02      -8.133e-07           0.000          -0.000           1.000       5.385e-04          2.3512
 272       2.615e-03       7.910e-02      -4.842e-07           0.000           0.000           1.000       1.830e-04          5.6934
Strip 22
 273       2.391e-01       1.312e-01       3.006e-09           0.000           0.000           1.000       1.805e-04          0.0561
 274       2.339e-01       1.312e-01       5.410e-09          -0.000           0.000           1.000       5.311e-04          0.0992
 275       2.221e-01       1.312e-01      -3.730e-09           0.000          -0.000           1.000       8.508e-04          0.1496
 276       2.044e-01       1.312e-01       2.181e-08          -0.000           0.000           1.000       1.121e-03          0.2054
 277       1.818e-01       1.312e-01       3.641e-08           0.000          -0.000           1.000       1.326e-03          0.2691
 278       1.555e-01       1.312e-01       3.446e-07           0.000           0.000           1.000       1.454e-03          0.3444
 279       1.272e-01       1.312e-01       9.930e-07           0.000          -0.000           1.000       1.498e-03          0.4372
 280       9.851e-02       1.312e-01      -1.336e-08          -0.000           0.000           1.000       1.454e-03          0.5556
 281       7.104e-02       1.312e-01      -1.739e-06           0.000          -0.000           1.000       1.326e-03          0.7215
 282       4.642e-02       1.312e-01       2.241e-06          -0.000           0.000           1.000       1.121e-03          0.9674
 283       2.607e-02       1.312e-01      -2.672e-07          -0.000           0.000           1.000       8.508e-04          1.3929
 284       1.118e-02       1.312e-01      -8.133e-07           0.000           0.000           1.000       5.311e-04          2.3374
 285       2.615e-03       1.312e-01      -4.842e-07           0.000           0.000           1.000       1.805e-04          5.6607
Strip 23
 286       2.391e-01       1.825e-01       3.006e-09           0.000           0.000           1.000       1.768e-04          0.0552
 287       2.339e-01       1.825e-01       5.410e-09          -0.000           0.000           1.000       5.201e-04          0.0976
 288       2.221e-01       1.825e-01      -3.730e-09           0.000           0.000           1.000       8.331e-04          0.1472
 289       2.044e-01       1.825e-01       2.181e-08          -0.000          -0.000           1.000       1.098e-03          0.2022
 290       1.818e-01       1.825e-01       3.641e-08           0.000           0.000           1.000       1.299e-03          0.2651
 291       1.555e-01       1.825e-01       3.446e-07           0.000           0.000           1.000       1.424e-03          0.3396
 292       1.272e-01       1.825e-01       9.930e-07           0.000           0.000           1.000       1.467e-03          0.4314
 293       9.851e-02       1.825e-01      -1.336e-08          -0.000          -0.000           1.000       1.424e-03          0.5488
 294       7.104e-02       1.825e-01      -1.739e-06           0.000           0.000           1.000       1.299e-03          0.7135
 295       4.642e-02       1.825e-01       2.241e-06          -0.000           0.000           1.000       1.098e-03          0.9575
 296       2.607e-02       1.825e-01      -2.672e-07          -0.000           0.000           1.000       8.331e-04          1.3797
 297       1.118e-02       1.825e-01      -8.133e-07           0.000          -0.000           1.000       5.201e-04          2.3163
 298       2.615e-03       1.825e-01      -4.842e-07           0.000           0.000           1.000       1.768e-04          5.6109
Strip 24
 299       2.391e-01       2.324e-01       3.006e-09           0.000           0.000           1.000       1.718e-04          0.0539
 300       2.339e-01       2.324e-01       5.410e-09          -0.000           0.000           1.000       5.055e-04          0.0954
 301       2.221e-01       2.324e-01      -3.730e-09           0.000           0.000           1.000       8.098e-04          0.1439
 302       2.044e-01       2.324e-01       2.181e-08          -0.000           0.000           1.000       1.067e-03          0.1978
 303       1.818e-01       2.324e-01       3.641e-08           0.000          -0.000           1.000       1.262e-03          0.2595
 304       1.555e-01       2.324e-01       3.446e-07           0.000           0.000           1.000       1.384e-03          0.3329
 305       1.272e-01       2.324e-01       9.930e-07           0.000           0.000           1.000       1.426e-03          0.4235
 306       9.851e-02       2.324e-01      -1.336e-08          -0.000          -0.000           1.000       1.384e-03          0.5395
 307       7.104e-02       2.324e-01      -1.739e-06           0.000           0.000           1.000       1.262e-03          0.7025
 308       4.642e-02       2.324e-01       2.241e-06          -0.000           0.000           1.000       1.067e-03          0.9439
 309       2.607e-02       2.324e-01      -2.672e-07          -0.000           0.000           1.000       8.098e-04          1.3616
 310       1.118e-02       2.324e-01      -8.133e-07           0.000           0.000           1.000       5.055e-04          2.2875
 311       2.615e-03       2.324e-01      -4.842e-07           0.000           0.000           1.000       1.718e-04          5.5429
Strip 25
 312       2.391e-01       2.808e-01       3.006e-09           0.000           0.000           1.000       1.657e-04          0.0523
 313       2.339e-01       2.808e-01       5.410e-09          -0.000           0.000           1.000       4.875e-04          0.0925
 314       2.221e-01       2.808e-01      -3.730e-09           0.000          -0.000           1.000       7.809e-04          0.1396
 315       2.044e-01       2.808e-01       2.181e-08          -0.000           0.000           1.000       1.029e-03          0.1921
 316       1.818e-01       2.808e-01       3.641e-08           0.000           0.000           1.000       1.217e-03          0.2523
 317       1.555e-01       2.808e-01       3.446e-07           0.000           0.000           1.000       1.335e-03          0.3241
 318       1.272e-01       2.808e-01       9.930e-07           0.000          -0.000           1.000       1.375e-03          0.4131
 319       9.851e-02       2.808e-01      -1.336e-08          -0.000           0.000           1.000       1.335e-03          0.5273
 320       7.104e-02       2.808e-01      -1.739e-06           0.000           0.000           1.000       1.217e-03          0.6881
 321       4.642e-02       2.808e-01       2.241e-06          -0.000           0.000           1.000       1.029e-03          0.9263
 322       2.607e-02       2.808e-01      -2.672e-07          -0.000           0.000           1.000       7.809e-04          1.3382
 323       1.118e-02       2.808e-01      -8.133e-07           0.000           0.000           1.000       4.875e-04          2.2504
 324       2.615e-03       2.808e-01      -4.842e-07           0.000           0.000           1.000       1.657e-04          5.4554
Strip 26
 325       2.391e-01       3.273e-01       3.006e-09           0.000           0.000           1.000       1.585e-04          0.0502
 326       2.339e-01       3.273e-01       5.410e-09          -0.000           0.000           1.000       4.661e-04          0.0889
 327       2.221e-01       3.273e-01      -3.730e-09           0.000           0.000           1.000       7.467e-04          0.1343
 328       2.044e-01       3.273e-01       2.181e-08          -0.000           0.000           1.000       9.839e-04          0.1849
 329       1.818e-01       3.273e-01       3.641e-08           0.000           0.000           1.000       1.164e-03          0.2432
 330       1.555e-01       3.273e-01       3.446e-07           0.000           0.000           1.000       1.276e-03          0.3131
 331       1.272e-01       3.273e-01       9.930e-07           0.000           0.000           1.000       1.315e-03          0.4000
 332       9.851e-02       3.273e-01      -1.336e-08          -0.000           0.000           1.000       1.276e-03          0.5120
 333       7.104e-02       3.273e-01      -1.739e-06           0.000           0.000           1.000       1.164e-03          0.6701
 334       4.642e-02       3.273e-01       2.241e-06          -0.000          -0.000           1.000       9.839e-04          0.9043
 335       2.607e-02       3.273e-01      -2.672e-07          -0.000          -0.000           1.000       7.467e-04          1.3090
 336       1.118e-02       3.273e-01      -8.133e-07           0.000           0.000           1.000       4.661e-04          2.2043
 337       2.615e-03       3.273e-01      -4.842e-07           0.000           0.000           1.000       1.585e-04          5.3468
Strip 27
 338       2.391e-01       3.716e-01       3.006e-09           0.000           0.000           1.000       1.501e-04          0.0477
 339       2.339e-01       3.716e-01       5.410e-09          -0.000           0.000           1.000       4.416e-04          0.0846
 340       2.221e-01       3.716e-01      -3.730e-09           0.000           0.000           1.000       7.074e-04          0.1278
 341       2.044e-01       3.716e-01       2.181e-08          -0.000          -0.000           1.000       9.322e-04          0.1761
 342       1.818e-01       3.716e-01       3.641e-08           0.000           0.000           1.000       1.103e-03          0.2321
 343       1.555e-01       3.716e-01       3.446e-07           0.000           0.000           1.000       1.209e-03          0.2995
 344       1.272e-01       3.716e-01       9.930e-07           0.000           0.000           1.000       1.245e-03          0.3839
 345       9.851e-02       3.716e-01      -1.336e-08          -0.000           0.000           1.000       1.209e-03          0.4932
 346       7.104e-02       3.716e-01      -1.739e-06           0.000           0.000           1.000       1.103e-03          0.6479
 347       4.642e-02       3.716e-01       2.241e-06          -0.000           0.000           1.000       9.322e-04          0.8773
 348       2.607e-02       3.716e-01      -2.672e-07          -0.000           0.000           1.000       7.074e-04          1.2735
 349       1.118e-02       3.716e-01      -8.133e-07           0.000          -0.000           1.000       4.416e-04          2.1484
 350       2.615e-03       3.716e-01      -4.842e-07           0.000           0.000           1.000       1.501e-04          5.2154
Strip 28
 351       2.391e-01       4.133e-01       3.006e-09           0.000           0.000           1.000       1.407e-04          0.0448
 352       2.339e-01       4.133e-01       5.410e-09          -0.000           0.000           1.000       4.141e-04          0.0794
 353       2.221e-01       4.133e-01      -3.730e-09           0.000          -0.000           1.000       6.633e-04          0.1200
 354       2.044e-01       4.133e-01       2.181e-08          -0.000           0.000           1.000       8.740e-04          0.1657
 355       1.818e-01       4.133e-01       3.641e-08           0.000           0.000           1.000       1.034e-03          0.2188
 356       1.555e-01       4.133e-01       3.446e-07           0.000           0.000           1.000       1.134e-03          0.2832
 357       1.272e-01       4.133e-01       9.930e-07           0.000           0.000           1.000       1.168e-03          0.3645
 358       9.851e-02       4.133e-01      -1.336e-08          -0.000          -0.000           1.000       1.134e-03          0.4703
 359       7.104e-02       4.133e-01      -1.739e-06           0.000           0.000           1.000       1.034e-03          0.6211
 360       4.642e-02       4.133e-01       2.241e-06          -0.000           0.000           1.000       8.740e-04          0.8448
 361       2.607e-02       4.133e-01      -2.672e-07          -0.000           0.000           1.000       6.633e-04          1.2309
 362       1.118e-02       4.133e-01      -8.133e-07           0.000           0.000           1.000       4.141e-04          2.0817
 363       2.615e-03       4.133e-01      -4.842e-07           0.000           0.000           1.000       1.407e-04          5.0589
Strip 29
 364       2.391e-01       4.522e-01       3.006e-09           0.000           0.000           1.000       1.304e-04          0.0414
 365       2.339e-01       4.522e-01       5.410e-09          -0.000           0.000           1.000       3.837e-04          0.0734
 366       2.221e-01       4.522e-01      -3.730e-09           0.000          -0.000           1.000       6.147e-04          0.1111
 367       2.044e-01       4.522e-01       2.181e-08          -0.000           0.000           1.000       8.099e-04          0.1536
 368       1.818e-01       4.522e-01       3.641e-08           0.000          -0.000           1.000       9.581e-04          0.2032
 369       1.555e-01       4.522e-01       3.446e-07           0.000           0.000           1.000       1.051e-03          0.2639
 370       1.272e-01       4.522e-01       9.930e-07           0.000          -0.000           1.000       1.082e-03          0.3413
 371       9.851e-02       4.522e-01      -1.336e-08          -0.000           0.000           1.000       1.051e-03          0.4430
 372       7.104e-02       4.522e-01      -1.739e-06           0.000           0.000           1.000       9.581e-04          0.5889
 373       4.642e-02       4.522e-01       2.241e-06          -0.000           0.000           1.000       8.099e-04          0.8060
 374       2.607e-02       4.522e-01      -2.672e-07          -0.000           0.000           1.000       6.147e-04          1.1804
 375       1.118e-02       4.522e-01      -8.133e-07           0.000           0.000           1.000       3.837e-04          2.0031
 376       2.615e-03       4.522e-01      -4.842e-07           0.000           0.000           1.000       1.304e-04          4.8752
Strip 30
 377       2.391e-01       4.880e-01       3.006e-09           0.000           0.000           1.000       1.192e-04          0.0377
 378       2.339e-01       4.880e-01       5.410e-09          -0.000           0.000           1.000       3.507e-04          0.0668
 379       2.221e-01       4.880e-01      -3.730e-09           0.000           0.000           1.000       5.618e-04          0.1011
 380       2.044e-01       4.880e-01       2.181e-08          -0.000          -0.000           1.000       7.403e-04          0.1398
 381       1.818e-01       4.880e-01       3.641e-08           0.000           0.000           1.000       8.757e-04          0.1854
 382       1.555e-01       4.880e-01       3.446e-07           0.000           0.000           1.000       9.602e-04          0.2416
 383       1.272e-01       4.880e-01       9.930e-07           0.000           0.000           1.000       9.890e-04          0.3141
 384       9.851e-02       4.880e-01      -1.336e-08          -0.000          -0.000           1.000       9.602e-04          0.4106
 385       7.104e-02       4.880e-01      -1.739e-06           0.000           0.000           1.000       8.757e-04          0.5506
 386       4.642e-02       4.880e-01       2.241e-06          -0.000           0.000           1.000       7.403e-04          0.7600
 387       2.607e-02       4.880e-01      -2.672e-07          -0.000           0.000           1.000       5.618e-04          1.1209
 388       1.118e-02       4.880e-01      -8.133e-07           0.000          -0.000           1.000       3.507e-04          1.9114
 389       2.615e-03       4.880e-01      -4.842e-07           0.000           0.000           1.000       1.192e-04          4.6616
Strip 31
 390       2.391e-01       5.204e-01       3.006e-09           0.000           0.000           1.000       1.072e-04          0.0337
 391       2.339e-01       5.204e-01       5.410e-09          -0.000           0.000           1.000       3.153e-04          0.0596
 392       2.221e-01       5.204e-01      -3.730e-09           0.000           0.000           1.000       5.051e-04          0.0903
 393       2.044e-01       5.204e-01       2.181e-08          -0.000           0.000           1.000       6.656e-04          0.1249
 394       1.818e-01       5.204e-01       3.641e-08           0.000          -0.000           1.000       7.873e-04          0.1657
 395       1.555e-01       5.204e-01       3.446e-07           0.000           0.000           1.000       8.633e-04          0.2166
 396       1.272e-01       5.204e-01       9.930e-07           0.000          -0.000           1.000       8.892e-04          0.2831
 397       9.851e-02       5.204e-01      -1.336e-08          -0.000           0.000           1.000       8.633e-04          0.3730
 398       7.104e-02       5.204e-01      -1.739e-06           0.000           0.000           1.000       7.873e-04          0.5056
 399       4.642e-02       5.204e-01       2.241e-06          -0.000          -0.000           1.000       6.656e-04          0.7058
 400       2.607e-02       5.204e-01      -2.672e-07          -0.000          -0.000           1.000       5.051e-04          1.0514
 401       1.118e-02       5.204e-01      -8.133e-07           0.000           0.000           1.000       3.153e-04          1.8051
 402       2.615e-03       5.204e-01      -4.842e-07           0.000           0.000           1.000       1.072e-04          4.4155
Strip 32
 403       2.391e-01       5.493e-01       3.006e-09           0.000           0.000           1.000       9.442e-05          0.0295
 404       2.339e-01       5.493e-01       5.410e-09          -0.000           0.000           1.000       2.778e-04          0.0522
 405       2.221e-01       5.493e-01      -3.730e-09           0.000           0.000           1.000       4.450e-04          0.0789
 406       2.044e-01       5.493e-01       2.181e-08          -0.000          -0.000           1.000       5.863e-04          0.1090
 407       1.818e-01       5.493e-01       3.641e-08           0.000           0.000           1.000       6.936e-04          0.1447
 408       1.555e-01       5.493e-01       3.446e-07           0.000           0.000           1.000       7.605e-04          0.1894
 409       1.272e-01       5.493e-01       9.930e-07           0.000          -0.000           1.000       7.833e-04          0.2486
 410       9.851e-02       5.493e-01      -1.336e-08          -0.000           0.000           1.000       7.605e-04          0.3301
 411       7.104e-02       5.493e-01      -1.739e-06           0.000           0.000           1.000       6.936e-04          0.4533
 412       4.642e-02       5.493e-01       2.241e-06          -0.000           0.000           1.000       5.863e-04          0.6421
 413       2.607e-02       5.493e-01      -2.672e-07          -0.000           0.000           1.000       4.450e-04          0.9702
 414       1.118e-02       5.493e-01      -8.133e-07           0.000           0.000           1.000       2.778e-04          1.6825
 415       2.615e-03       5.493e-01      -4.842e-07           0.000           0.000           1.000       9.442e-05          4.1336
Strip 33
 416       2.391e-01       5.745e-01       3.006e-09           0.000           0.000           1.000       8.101e-05          0.0253
 417       2.339e-01       5.745e-01       5.410e-09          -0.000           0.000           1.000       2.383e-04          0.0448
 418       2.221e-01       5.745e-01      -3.730e-09           0.000           0.000           1.000       3.818e-04          0.0675
 419       2.044e-01       5.745e-01       2.181e-08          -0.000           0.000           1.000       5.030e-04          0.0929
 420       1.818e-01       5.745e-01       3.641e-08           0.000           0.000           1.000       5.951e-04          0.1230
 421       1.555e-01       5.745e-01       3.446e-07           0.000           0.000           1.000       6.525e-04          0.1610
 422       1.272e-01       5.745e-01       9.930e-07           0.000           0.000           1.000       6.721e-04          0.2118
 423       9.851e-02       5.745e-01      -1.336e-08          -0.000           0.000           1.000       6.525e-04          0.2827
 424       7.104e-02       5.745e-01      -1.739e-06           0.000           0.000           1.000       5.951e-04          0.3934
 425       4.642e-02       5.745e-01       2.241e-06          -0.000           0.000           1.000       5.030e-04          0.5676
 426       2.607e-02       5.745e-01      -2.672e-07          -0.000           0.000           1.000       3.818e-04          0.8752
 427       1.118e-02       5.745e-01      -8.133e-07           0.000           0.000           1.000       2.383e-04          1.5411
 428       2.615e-03       5.745e-01      -4.842e-07           0.000           0.000           1.000       8.101e-05          3.8122
Strip 34
 429       2.391e-01       5.957e-01       3.006e-09           0.000           0.000           1.000       6.705e-05          0.0213
 430       2.339e-01       5.957e-01       5.410e-09          -0.000           0.000           1.000       1.972e-04          0.0375
 431       2.221e-01       5.957e-01      -3.730e-09           0.000           0.000           1.000       3.160e-04          0.0562
 432       2.044e-01       5.957e-01       2.181e-08          -0.000           0.000           1.000       4.164e-04          0.0769
 433       1.818e-01       5.957e-01       3.641e-08           0.000           0.000           1.000       4.925e-04          0.1014
 434       1.555e-01       5.957e-01       3.446e-07           0.000           0.000           1.000       5.401e-04          0.1324
 435       1.272e-01       5.957e-01       9.930e-07           0.000           0.000           1.000       5.562e-04          0.1740
 436       9.851e-02       5.957e-01      -1.336e-08          -0.000           0.000           1.000       5.401e-04          0.2328
 437       7.104e-02       5.957e-01      -1.739e-06           0.000           0.000           1.000       4.925e-04          0.3272
 438       4.642e-02       5.957e-01       2.241e-06          -0.000           0.000           1.000       4.164e-04          0.4813
 439       2.607e-02       5.957e-01      -2.672e-07          -0.000           0.000           1.000       3.160e-04          0.7634
 440       1.118e-02       5.957e-01      -8.133e-07           0.000           0.000           1.000       1.972e-04          1.3777
 441       2.615e-03       5.957e-01      -4.842e-07           0.000           0.000           1.000       6.705e-05          3.4463
Strip 35
 442       2.391e-01       6.129e-01       3.006e-09           0.000           0.000           1.000       5.263e-05          0.0174
 443       2.339e-01       6.129e-01       5.410e-09          -0.000           0.000           1.000       1.548e-04          0.0305
 444       2.221e-01       6.129e-01      -3.730e-09           0.000           0.000           1.000       2.480e-04          0.0452
 445       2.044e-01       6.129e-01       2.181e-08          -0.000           0.000           1.000       3.268e-04          0.0614
 446       1.818e-01       6.129e-01       3.641e-08           0.000           0.000           1.000       3.866e-04          0.0804
 447       1.555e-01       6.129e-01       3.446e-07           0.000           0.000           1.000       4.239e-04          0.1045
 448       1.272e-01       6.129e-01       9.930e-07           0.000           0.000           1.000       4.366e-04          0.1371
 449       9.851e-02       6.129e-01      -1.336e-08          -0.000           0.000           1.000       4.239e-04          0.1828
 450       7.104e-02       6.129e-01      -1.739e-06           0.000           0.000           1.000       3.866e-04          0.2580
 451       4.642e-02       6.129e-01       2.241e-06          -0.000           0.000           1.000       3.268e-04          0.3846
 452       2.607e-02       6.129e-01      -2.672e-07          -0.000           0.000           1.000       2.480e-04          0.6312
 453       1.118e-02       6.129e-01      -8.133e-07           0.000           0.000           1.000       1.548e-04          1.1863
 454       2.615e-03       6.129e-01      -4.842e-07           0.000           0.000           1.000       5.263e-05          3.0287
Strip 36
 455       2.391e-01       6.258e-01       3.006e-09           0.000           0.000           1.000       3.785e-05          0.0138
 456       2.339e-01       6.258e-01       5.410e-09          -0.000           0.000           1.000       1.114e-04          0.0237
 457       2.221e-01       6.258e-01      -3.730e-09           0.000           0.000           1.000       1.784e-04          0.0345
 458       2.044e-01       6.258e-01       2.181e-08          -0.000           0.000           1.000       2.351e-04          0.0463
 459       1.818e-01       6.258e-01       3.641e-08           0.000           0.000           1.000       2.781e-04          0.0602
 460       1.555e-01       6.258e-01       3.446e-07           0.000           0.000           1.000       3.049e-04          0.0780
 461       1.272e-01       6.258e-01       9.930e-07           0.000           0.000           1.000       3.140e-04          0.1019
 462       9.851e-02       6.258e-01      -1.336e-08          -0.000           0.000           1.000       3.049e-04          0.1351
 463       7.104e-02       6.258e-01      -1.739e-06           0.000           0.000           1.000       2.781e-04          0.1902
 464       4.642e-02       6.258e-01       2.241e-06          -0.000           0.000           1.000       2.351e-04          0.2836
 465       2.607e-02       6.258e-01      -2.672e-07          -0.000          -0.000           1.000       1.784e-04          0.4776
 466       1.118e-02       6.258e-01      -8.133e-07           0.000          -0.000           1.000       1.114e-04          0.9564
 467       2.615e-03       6.258e-01      -4.842e-07           0.000           0.000           1.000       3.785e-05          2.5479
Strip 37
 468       2.391e-01       6.345e-01       3.006e-09           0.000           0.000           1.000       2.281e-05          0.0102
 469       2.339e-01       6.345e-01       5.410e-09          -0.000           0.000           1.000       6.712e-05          0.0168
 470       2.221e-01       6.345e-01      -3.730e-09           0.000           0.000           1.000       1.075e-04          0.0239
 471       2.044e-01       6.345e-01       2.181e-08          -0.000           0.000           1.000       1.417e-04          0.0317
 472       1.818e-01       6.345e-01       3.641e-08           0.000           0.000           1.000       1.676e-04          0.0411
 473       1.555e-01       6.345e-01       3.446e-07           0.000           0.000           1.000       1.838e-04          0.0530
 474       1.272e-01       6.345e-01       9.930e-07           0.000           0.000           1.000       1.893e-04          0.0690
 475       9.851e-02       6.345e-01      -1.336e-08          -0.000           0.000           1.000       1.838e-04          0.0909
 476       7.104e-02       6.345e-01      -1.739e-06           0.000           0.000           1.000       1.676e-04          0.1274
 477       4.642e-02       6.345e-01       2.241e-06          -0.000           0.000           1.000       1.417e-04          0.1881
 478       2.607e-02       6.345e-01      -2.672e-07          -0.000           0.000           1.000       1.075e-04          0.3157
 479       1.118e-02       6.345e-01      -8.133e-07           0.000           0.000           1.000       6.712e-05          0.6716
 480       2.615e-03       6.345e-01      -4.842e-07           0.000           0.000           1.000       2.281e-05          1.9825
Strip 38
 481       2.391e-01       6.389e-01       3.006e-09           0.000           0.000           1.000       7.622e-06          0.0065
 482       2.339e-01       6.389e-01       5.410e-09          -0.000           0.000           1.000       2.242e-05          0.0099
 483       2.221e-01       6.389e-01      -3.730e-09           0.000           0.000           1.000       3.592e-05          0.0139
 484       2.044e-01       6.389e-01       2.181e-08          -0.000           0.000           1.000       4.733e-05          0.0183
 485       1.818e-01       6.389e-01       3.641e-08           0.000           0.000           1.000       5.599e-05          0.0237
 486       1.555e-01       6.389e-01       3.446e-07           0.000           0.000           1.000       6.140e-05          0.0305
 487       1.272e-01       6.389e-01       9.930e-07           0.000           0.000           1.000       6.324e-05          0.0397
 488       9.851e-02       6.389e-01      -1.336e-08          -0.000           0.000           1.000       6.140e-05          0.0521
 489       7.104e-02       6.389e-01      -1.739e-06           0.000           0.000           1.000       5.599e-05          0.0729
 490       4.642e-02       6.389e-01       2.241e-06          -0.000           0.000           1.000       4.733e-05          0.1068
 491       2.607e-02       6.389e-01      -2.672e-07          -0.000           0.000           1.000       3.592e-05          0.1769
 492       1.118e-02       6.389e-01      -8.133e-07           0.000           0.000           1.000       2.242e-05          0.3698
 493       2.615e-03       6.389e-01      -4.842e-07           0.000           0.000           1.000       7.622e-06          1.2801










