xflr5 v6.50

Plane Name
T1-44.0 m/s-VLM1
QInf  =   44.000000 m/s
Alpha =    9.500000
Beta  =    0.000°
Phi   =    0.000°
Ctrl  =    0.000
CL    =    0.674633
Cy    =    0.000000
Cd    =    0.038664     ICd   =    0.026731     PCd   =    0.011933
Cl   =  2.5005e-17
Cm   =   -0.159855
ICn   =   -0.000000     PCn   =   -0.000000 
XCP   =    0.057481     YCP   =    0.000000     ZCP   =   -0.000000  
XNP   =    0.000000
Bending =   31.533280

Main Wing
  y-span        Chord      Ai         Cl        PCd          ICd        CmGeom    CmAirf@chord/4    XTrtop    XTrBot      XCP       BM
   -0.6389     0.2400    -3.759    0.099264    0.006911    0.006523   -0.018757    0.006345     0.6471    0.6897    0.1861    0.0000
   -0.6345     0.2400    -3.713    0.170799    0.006979    0.011084   -0.032467    0.010520     0.6322    0.7060    0.1884    0.0003
   -0.6258     0.2400    -3.638    0.245543    0.006989    0.015610   -0.047766    0.013908     0.6103    0.7250    0.1934    0.0036
   -0.6129     0.2400    -3.538    0.317824    0.007052    0.019652   -0.063765    0.015982     0.5811    0.7437    0.1997    0.0183
   -0.5957     0.2400    -3.418    0.386014    0.007137    0.023052   -0.080050    0.016748     0.5526    0.7622    0.2066    0.0613
   -0.5745     0.2400    -3.278    0.449118    0.007284    0.025726   -0.096152    0.016428     0.5199    0.7798    0.2134    0.1593
   -0.5493     0.2400    -3.125    0.506488    0.007636    0.027652   -0.111599    0.015338     0.4541    0.7987    0.2197    0.3501
   -0.5204     0.2400    -2.963    0.557777    0.009333    0.028869   -0.126024    0.013805     0.2375    0.8236    0.2253    0.6822
   -0.4880     0.2400    -2.798    0.602916    0.010737    0.029468   -0.139065    0.012107     0.1119    0.8481    0.2299    1.2135
   -0.4522     0.2400    -2.637    0.642069    0.011505    0.029574   -0.150548    0.010444     0.0687    0.8708    0.2337    2.0093
   -0.4133     0.2400    -2.485    0.675564    0.012040    0.029324   -0.160454    0.008934     0.0508    0.8924    0.2368    3.1396
   -0.3716     0.2400    -2.347    0.703835    0.012495    0.028847   -0.168841    0.007633     0.0421    0.9139    0.2392    4.6756
   -0.3273     0.2400    -2.224    0.727350    0.012893    0.028253   -0.175815    0.006554     0.0367    0.9313    0.2410    6.6865
   -0.2808     0.2400    -2.119    0.746572    0.013236    0.027628   -0.181502    0.005687     0.0336    0.9452    0.2424    9.2363
   -0.2324     0.2400    -2.032    0.761920    0.013510    0.027035   -0.186027    0.005010     0.0311    0.9563    0.2434   12.3801
   -0.1825     0.2400    -1.963    0.773758    0.013729    0.026520   -0.189505    0.004501     0.0301    0.9616    0.2442   16.1611
   -0.1312     0.2400    -1.912    0.782378    0.013889    0.026112   -0.192030    0.004138     0.0294    0.9650    0.2447   20.6083
   -0.0791     0.2400    -1.878    0.788003    0.013994    0.025832   -0.193673    0.003905     0.0290    0.9672    0.2450   25.7342
   -0.0264     0.2400    -1.861    0.790778    0.014046    0.025689   -0.194483    0.003791     0.0287    0.9683    0.2452   31.5333
    0.0264     0.2400    -1.861    0.790778    0.014046    0.025689   -0.194483    0.003791     0.0287    0.9683    0.2452   31.5333
    0.0791     0.2400    -1.878    0.788003    0.013994    0.025832   -0.193673    0.003905     0.0290    0.9672    0.2450   25.7342
    0.1312     0.2400    -1.912    0.782378    0.013889    0.026112   -0.192030    0.004138     0.0294    0.9650    0.2447   20.6083
    0.1825     0.2400    -1.963    0.773758    0.013729    0.026520   -0.189505    0.004501     0.0301    0.9616    0.2442   16.1611
    0.2324     0.2400    -2.032    0.761920    0.013510    0.027035   -0.186027    0.005010     0.0311    0.9563    0.2434   12.3801
    0.2808     0.2400    -2.119    0.746572    0.013236    0.027628   -0.181502    0.005687     0.0336    0.9452    0.2424    9.2363
    0.3273     0.2400    -2.224    0.727350    0.012893    0.028253   -0.175815    0.006554     0.0367    0.9313    0.2410    6.6865
    0.3716     0.2400    -2.347    0.703835    0.012495    0.028847   -0.168841    0.007633     0.0421    0.9139    0.2392    4.6756
    0.4133     0.2400    -2.485    0.675564    0.012040    0.029324   -0.160454    0.008934     0.0508    0.8924    0.2368    3.1396
    0.4522     0.2400    -2.637    0.642069    0.011505    0.029574   -0.150548    0.010444     0.0687    0.8708    0.2337    2.0093
    0.4880     0.2400    -2.798    0.602916    0.010737    0.029468   -0.139065    0.012107     0.1119    0.8481    0.2299    1.2135
    0.5204     0.2400    -2.963    0.557777    0.009333    0.028869   -0.126024    0.013805     0.2375    0.8236    0.2253    0.6822
    0.5493     0.2400    -3.125    0.506488    0.007636    0.027652   -0.111599    0.015338     0.4541    0.7987    0.2197    0.3501
    0.5745     0.2400    -3.278    0.449118    0.007284    0.025726   -0.096152    0.016428     0.5199    0.7798    0.2134    0.1593
    0.5957     0.2400    -3.418    0.386014    0.007137    0.023052   -0.080050    0.016748     0.5526    0.7622    0.2066    0.0613
    0.6129     0.2400    -3.538    0.317824    0.007052    0.019652   -0.063765    0.015982     0.5811    0.7437    0.1997    0.0183
    0.6258     0.2400    -3.638    0.245543    0.006989    0.015610   -0.047766    0.013908     0.6103    0.7250    0.1934    0.0036
    0.6345     0.2400    -3.713    0.170799    0.006979    0.011084   -0.032467    0.010520     0.6322    0.7060    0.1884    0.0003
    0.6389     0.2400    -3.759    0.099264    0.006911    0.006523   -0.018757    0.006345     0.6471    0.6897    0.1861    0.0000


Main Wing Cp Coefficients
 Panel     CtrlPt.x        CtrlPt.y        CtrlPt.z       Nx      Ny       Nz        Area       Cp
Main WingCp Coefficients
Strip 1
   0       2.391e-01      -6.389e-01       3.006e-09           0.000           0.000           1.000       7.622e-06          0.0076
   1       2.339e-01      -6.389e-01       5.410e-09          -0.000           0.000           1.000       2.242e-05          0.0117
   2       2.221e-01      -6.389e-01      -3.730e-09           0.000           0.000           1.000       3.592e-05          0.0164
   3       2.044e-01      -6.389e-01       2.181e-08          -0.000           0.000           1.000       4.733e-05          0.0216
   4       1.818e-01      -6.389e-01       3.641e-08           0.000           0.000           1.000       5.599e-05          0.0280
   5       1.555e-01      -6.389e-01       3.446e-07           0.000           0.000           1.000       6.140e-05          0.0360
   6       1.272e-01      -6.389e-01       9.930e-07           0.000           0.000           1.000       6.324e-05          0.0468
   7       9.851e-02      -6.389e-01      -1.336e-08          -0.000           0.000           1.000       6.140e-05          0.0616
   8       7.104e-02      -6.389e-01      -1.739e-06           0.000           0.000           1.000       5.599e-05          0.0860
   9       4.642e-02      -6.389e-01       2.241e-06          -0.000           0.000           1.000       4.733e-05          0.1262
  10       2.607e-02      -6.389e-01      -2.672e-07          -0.000           0.000           1.000       3.592e-05          0.2090
  11       1.118e-02      -6.389e-01      -8.133e-07           0.000           0.000           1.000       2.242e-05          0.4369
  12       2.615e-03      -6.389e-01      -4.842e-07           0.000           0.000           1.000       7.622e-06          1.5119
Strip 2
  13       2.391e-01      -6.345e-01       3.006e-09           0.000           0.000           1.000       2.281e-05          0.0120
  14       2.339e-01      -6.345e-01       5.410e-09          -0.000           0.000           1.000       6.712e-05          0.0198
  15       2.221e-01      -6.345e-01      -3.730e-09           0.000           0.000           1.000       1.075e-04          0.0282
  16       2.044e-01      -6.345e-01       2.181e-08          -0.000           0.000           1.000       1.417e-04          0.0375
  17       1.818e-01      -6.345e-01       3.641e-08           0.000           0.000           1.000       1.676e-04          0.0485
  18       1.555e-01      -6.345e-01       3.446e-07           0.000           0.000           1.000       1.838e-04          0.0626
  19       1.272e-01      -6.345e-01       9.930e-07           0.000           0.000           1.000       1.893e-04          0.0815
  20       9.851e-02      -6.345e-01      -1.336e-08          -0.000           0.000           1.000       1.838e-04          0.1075
  21       7.104e-02      -6.345e-01      -1.739e-06           0.000           0.000           1.000       1.676e-04          0.1504
  22       4.642e-02      -6.345e-01       2.241e-06          -0.000           0.000           1.000       1.417e-04          0.2222
  23       2.607e-02      -6.345e-01      -2.672e-07          -0.000           0.000           1.000       1.075e-04          0.3729
  24       1.118e-02      -6.345e-01      -8.133e-07           0.000           0.000           1.000       6.712e-05          0.7933
  25       2.615e-03      -6.345e-01      -4.842e-07           0.000           0.000           1.000       2.281e-05          2.3415
Strip 3
  26       2.391e-01      -6.258e-01       3.006e-09           0.000           0.000           1.000       3.785e-05          0.0162
  27       2.339e-01      -6.258e-01       5.410e-09          -0.000           0.000           1.000       1.114e-04          0.0279
  28       2.221e-01      -6.258e-01      -3.730e-09           0.000           0.000           1.000       1.784e-04          0.0407
  29       2.044e-01      -6.258e-01       2.181e-08          -0.000           0.000           1.000       2.351e-04          0.0547
  30       1.818e-01      -6.258e-01       3.641e-08           0.000           0.000           1.000       2.781e-04          0.0712
  31       1.555e-01      -6.258e-01       3.446e-07           0.000           0.000           1.000       3.049e-04          0.0921
  32       1.272e-01      -6.258e-01       9.930e-07           0.000           0.000           1.000       3.140e-04          0.1203
  33       9.851e-02      -6.258e-01      -1.336e-08          -0.000           0.000           1.000       3.049e-04          0.1597
  34       7.104e-02      -6.258e-01      -1.739e-06           0.000           0.000           1.000       2.781e-04          0.2245
  35       4.642e-02      -6.258e-01       2.241e-06          -0.000           0.000           1.000       2.351e-04          0.3350
  36       2.607e-02      -6.258e-01      -2.672e-07          -0.000           0.000           1.000       1.784e-04          0.5642
  37       1.118e-02      -6.258e-01      -8.133e-07           0.000           0.000           1.000       1.114e-04          1.1297
  38       2.615e-03      -6.258e-01      -4.842e-07           0.000           0.000           1.000       3.785e-05          3.0092
Strip 4
  39       2.391e-01      -6.129e-01       3.006e-09           0.000           0.000           1.000       5.263e-05          0.0206
  40       2.339e-01      -6.129e-01       5.410e-09          -0.000           0.000           1.000       1.548e-04          0.0360
  41       2.221e-01      -6.129e-01      -3.730e-09           0.000          -0.000           1.000       2.480e-04          0.0534
  42       2.044e-01      -6.129e-01       2.181e-08          -0.000           0.000           1.000       3.268e-04          0.0725
  43       1.818e-01      -6.129e-01       3.641e-08           0.000          -0.000           1.000       3.866e-04          0.0949
  44       1.555e-01      -6.129e-01       3.446e-07           0.000           0.000           1.000       4.239e-04          0.1234
  45       1.272e-01      -6.129e-01       9.930e-07           0.000           0.000           1.000       4.366e-04          0.1618
  46       9.851e-02      -6.129e-01      -1.336e-08          -0.000           0.000           1.000       4.239e-04          0.2160
  47       7.104e-02      -6.129e-01      -1.739e-06           0.000           0.000           1.000       3.866e-04          0.3045
  48       4.642e-02      -6.129e-01       2.241e-06          -0.000           0.000           1.000       3.268e-04          0.4543
  49       2.607e-02      -6.129e-01      -2.672e-07          -0.000           0.000           1.000       2.480e-04          0.7456
  50       1.118e-02      -6.129e-01      -8.133e-07           0.000           0.000           1.000       1.548e-04          1.4013
  51       2.615e-03      -6.129e-01      -4.842e-07           0.000           0.000           1.000       5.263e-05          3.5772
Strip 5
  52       2.391e-01      -5.957e-01       3.006e-09           0.000           0.000           1.000       6.705e-05          0.0251
  53       2.339e-01      -5.957e-01       5.410e-09          -0.000           0.000           1.000       1.972e-04          0.0443
  54       2.221e-01      -5.957e-01      -3.730e-09           0.000           0.000           1.000       3.160e-04          0.0663
  55       2.044e-01      -5.957e-01       2.181e-08          -0.000           0.000           1.000       4.164e-04          0.0909
  56       1.818e-01      -5.957e-01       3.641e-08           0.000          -0.000           1.000       4.925e-04          0.1198
  57       1.555e-01      -5.957e-01       3.446e-07           0.000           0.000           1.000       5.401e-04          0.1563
  58       1.272e-01      -5.957e-01       9.930e-07           0.000          -0.000           1.000       5.562e-04          0.2055
  59       9.851e-02      -5.957e-01      -1.336e-08          -0.000           0.000           1.000       5.401e-04          0.2751
  60       7.104e-02      -5.957e-01      -1.739e-06           0.000           0.000           1.000       4.925e-04          0.3863
  61       4.642e-02      -5.957e-01       2.241e-06          -0.000           0.000           1.000       4.164e-04          0.5686
  62       2.607e-02      -5.957e-01      -2.672e-07          -0.000           0.000           1.000       3.160e-04          0.9017
  63       1.118e-02      -5.957e-01      -8.133e-07           0.000           0.000           1.000       1.972e-04          1.6273
  64       2.615e-03      -5.957e-01      -4.842e-07           0.000           0.000           1.000       6.705e-05          4.0705
Strip 6
  65       2.391e-01      -5.745e-01       3.006e-09           0.000           0.000           1.000       8.101e-05          0.0299
  66       2.339e-01      -5.745e-01       5.410e-09          -0.000           0.000           1.000       2.383e-04          0.0529
  67       2.221e-01      -5.745e-01      -3.730e-09           0.000           0.000           1.000       3.818e-04          0.0797
  68       2.044e-01      -5.745e-01       2.181e-08          -0.000           0.000           1.000       5.030e-04          0.1097
  69       1.818e-01      -5.745e-01       3.641e-08           0.000           0.000           1.000       5.951e-04          0.1453
  70       1.555e-01      -5.745e-01       3.446e-07           0.000           0.000           1.000       6.525e-04          0.1901
  71       1.272e-01      -5.745e-01       9.930e-07           0.000           0.000           1.000       6.721e-04          0.2501
  72       9.851e-02      -5.745e-01      -1.336e-08          -0.000           0.000           1.000       6.525e-04          0.3341
  73       7.104e-02      -5.745e-01      -1.739e-06           0.000           0.000           1.000       5.951e-04          0.4645
  74       4.642e-02      -5.745e-01       2.241e-06          -0.000           0.000           1.000       5.030e-04          0.6704
  75       2.607e-02      -5.745e-01      -2.672e-07          -0.000           0.000           1.000       3.818e-04          1.0337
  76       1.118e-02      -5.745e-01      -8.133e-07           0.000           0.000           1.000       2.383e-04          1.8204
  77       2.615e-03      -5.745e-01      -4.842e-07           0.000           0.000           1.000       8.101e-05          4.5026
Strip 7
  78       2.391e-01      -5.493e-01       3.006e-09           0.000           0.000           1.000       9.442e-05          0.0348
  79       2.339e-01      -5.493e-01       5.410e-09          -0.000           0.000           1.000       2.778e-04          0.0617
  80       2.221e-01      -5.493e-01      -3.730e-09           0.000          -0.000           1.000       4.450e-04          0.0932
  81       2.044e-01      -5.493e-01       2.181e-08          -0.000           0.000           1.000       5.863e-04          0.1288
  82       1.818e-01      -5.493e-01       3.641e-08           0.000           0.000           1.000       6.936e-04          0.1709
  83       1.555e-01      -5.493e-01       3.446e-07           0.000           0.000           1.000       7.605e-04          0.2237
  84       1.272e-01      -5.493e-01       9.930e-07           0.000          -0.000           1.000       7.833e-04          0.2936
  85       9.851e-02      -5.493e-01      -1.336e-08          -0.000           0.000           1.000       7.605e-04          0.3900
  86       7.104e-02      -5.493e-01      -1.739e-06           0.000           0.000           1.000       6.936e-04          0.5352
  87       4.642e-02      -5.493e-01       2.241e-06          -0.000           0.000           1.000       5.863e-04          0.7584
  88       2.607e-02      -5.493e-01      -2.672e-07          -0.000           0.000           1.000       4.450e-04          1.1460
  89       1.118e-02      -5.493e-01      -8.133e-07           0.000           0.000           1.000       2.778e-04          1.9873
  90       2.615e-03      -5.493e-01      -4.842e-07           0.000           0.000           1.000       9.442e-05          4.8822
Strip 8
  91       2.391e-01      -5.204e-01       3.006e-09           0.000           0.000           1.000       1.072e-04          0.0398
  92       2.339e-01      -5.204e-01       5.410e-09          -0.000           0.000           1.000       3.153e-04          0.0705
  93       2.221e-01      -5.204e-01      -3.730e-09           0.000           0.000           1.000       5.051e-04          0.1066
  94       2.044e-01      -5.204e-01       2.181e-08          -0.000          -0.000           1.000       6.656e-04          0.1475
  95       1.818e-01      -5.204e-01       3.641e-08           0.000           0.000           1.000       7.873e-04          0.1957
  96       1.555e-01      -5.204e-01       3.446e-07           0.000           0.000           1.000       8.633e-04          0.2558
  97       1.272e-01      -5.204e-01       9.930e-07           0.000           0.000           1.000       8.892e-04          0.3343
  98       9.851e-02      -5.204e-01      -1.336e-08          -0.000          -0.000           1.000       8.633e-04          0.4407
  99       7.104e-02      -5.204e-01      -1.739e-06           0.000           0.000           1.000       7.873e-04          0.5971
 100       4.642e-02      -5.204e-01       2.241e-06          -0.000          -0.000           1.000       6.656e-04          0.8337
 101       2.607e-02      -5.204e-01      -2.672e-07          -0.000           0.000           1.000       5.051e-04          1.2419
 102       1.118e-02      -5.204e-01      -8.133e-07           0.000           0.000           1.000       3.153e-04          2.1321
 103       2.615e-03      -5.204e-01      -4.842e-07           0.000           0.000           1.000       1.072e-04          5.2152
Strip 9
 104       2.391e-01      -4.880e-01       3.006e-09           0.000           0.000           1.000       1.192e-04          0.0445
 105       2.339e-01      -4.880e-01       5.410e-09          -0.000           0.000           1.000       3.507e-04          0.0789
 106       2.221e-01      -4.880e-01      -3.730e-09           0.000           0.000           1.000       5.618e-04          0.1194
 107       2.044e-01      -4.880e-01       2.181e-08          -0.000           0.000           1.000       7.403e-04          0.1652
 108       1.818e-01      -4.880e-01       3.641e-08           0.000          -0.000           1.000       8.757e-04          0.2190
 109       1.555e-01      -4.880e-01       3.446e-07           0.000          -0.000           1.000       9.602e-04          0.2854
 110       1.272e-01      -4.880e-01       9.930e-07           0.000           0.000           1.000       9.890e-04          0.3710
 111       9.851e-02      -4.880e-01      -1.336e-08          -0.000          -0.000           1.000       9.602e-04          0.4851
 112       7.104e-02      -4.880e-01      -1.739e-06           0.000           0.000           1.000       8.757e-04          0.6502
 113       4.642e-02      -4.880e-01       2.241e-06          -0.000          -0.000           1.000       7.403e-04          0.8977
 114       2.607e-02      -4.880e-01      -2.672e-07          -0.000          -0.000           1.000       5.618e-04          1.3240
 115       1.118e-02      -4.880e-01      -8.133e-07           0.000          -0.000           1.000       3.507e-04          2.2577
 116       2.615e-03      -4.880e-01      -4.842e-07           0.000           0.000           1.000       1.192e-04          5.5059
Strip 10
 117       2.391e-01      -4.522e-01       3.006e-09           0.000           0.000           1.000       1.304e-04          0.0490
 118       2.339e-01      -4.522e-01       5.410e-09          -0.000           0.000           1.000       3.837e-04          0.0867
 119       2.221e-01      -4.522e-01      -3.730e-09           0.000          -0.000           1.000       6.147e-04          0.1312
 120       2.044e-01      -4.522e-01       2.181e-08          -0.000          -0.000           1.000       8.099e-04          0.1814
 121       1.818e-01      -4.522e-01       3.641e-08           0.000           0.000           1.000       9.581e-04          0.2400
 122       1.555e-01      -4.522e-01       3.446e-07           0.000           0.000           1.000       1.051e-03          0.3117
 123       1.272e-01      -4.522e-01       9.930e-07           0.000           0.000           1.000       1.082e-03          0.4030
 124       9.851e-02      -4.522e-01      -1.336e-08          -0.000           0.000           1.000       1.051e-03          0.5234
 125       7.104e-02      -4.522e-01      -1.739e-06           0.000           0.000           1.000       9.581e-04          0.6954
 126       4.642e-02      -4.522e-01       2.241e-06          -0.000           0.000           1.000       8.099e-04          0.9520
 127       2.607e-02      -4.522e-01      -2.672e-07          -0.000           0.000           1.000       6.147e-04          1.3942
 128       1.118e-02      -4.522e-01      -8.133e-07           0.000          -0.000           1.000       3.837e-04          2.3660
 129       2.615e-03      -4.522e-01      -4.842e-07           0.000           0.000           1.000       1.304e-04          5.7582
Strip 11
 130       2.391e-01      -4.133e-01       3.006e-09           0.000           0.000           1.000       1.407e-04          0.0529
 131       2.339e-01      -4.133e-01       5.410e-09          -0.000           0.000           1.000       4.141e-04          0.0938
 132       2.221e-01      -4.133e-01      -3.730e-09           0.000          -0.000           1.000       6.633e-04          0.1418
 133       2.044e-01      -4.133e-01       2.181e-08          -0.000           0.000           1.000       8.740e-04          0.1957
 134       1.818e-01      -4.133e-01       3.641e-08           0.000           0.000           1.000       1.034e-03          0.2584
 135       1.555e-01      -4.133e-01       3.446e-07           0.000           0.000           1.000       1.134e-03          0.3345
 136       1.272e-01      -4.133e-01       9.930e-07           0.000           0.000           1.000       1.168e-03          0.4304
 137       9.851e-02      -4.133e-01      -1.336e-08          -0.000           0.000           1.000       1.134e-03          0.5557
 138       7.104e-02      -4.133e-01      -1.739e-06           0.000           0.000           1.000       1.034e-03          0.7334
 139       4.642e-02      -4.133e-01       2.241e-06          -0.000           0.000           1.000       8.740e-04          0.9979
 140       2.607e-02      -4.133e-01      -2.672e-07          -0.000           0.000           1.000       6.633e-04          1.4539
 141       1.118e-02      -4.133e-01      -8.133e-07           0.000           0.000           1.000       4.141e-04          2.4589
 142       2.615e-03      -4.133e-01      -4.842e-07           0.000           0.000           1.000       1.407e-04          5.9752
Strip 12
 143       2.391e-01      -3.716e-01       3.006e-09           0.000           0.000           1.000       1.501e-04          0.0564
 144       2.339e-01      -3.716e-01       5.410e-09          -0.000           0.000           1.000       4.416e-04          0.0999
 145       2.221e-01      -3.716e-01      -3.730e-09           0.000           0.000           1.000       7.074e-04          0.1509
 146       2.044e-01      -3.716e-01       2.181e-08          -0.000          -0.000           1.000       9.322e-04          0.2081
 147       1.818e-01      -3.716e-01       3.641e-08           0.000           0.000           1.000       1.103e-03          0.2742
 148       1.555e-01      -3.716e-01       3.446e-07           0.000           0.000           1.000       1.209e-03          0.3538
 149       1.272e-01      -3.716e-01       9.930e-07           0.000          -0.000           1.000       1.245e-03          0.4534
 150       9.851e-02      -3.716e-01      -1.336e-08          -0.000           0.000           1.000       1.209e-03          0.5827
 151       7.104e-02      -3.716e-01      -1.739e-06           0.000           0.000           1.000       1.103e-03          0.7651
 152       4.642e-02      -3.716e-01       2.241e-06          -0.000          -0.000           1.000       9.322e-04          1.0363
 153       2.607e-02      -3.716e-01      -2.672e-07          -0.000          -0.000           1.000       7.074e-04          1.5042
 154       1.118e-02      -3.716e-01      -8.133e-07           0.000           0.000           1.000       4.416e-04          2.5377
 155       2.615e-03      -3.716e-01      -4.842e-07           0.000           0.000           1.000       1.501e-04          6.1600
Strip 13
 156       2.391e-01      -3.273e-01       3.006e-09           0.000           0.000           1.000       1.585e-04          0.0593
 157       2.339e-01      -3.273e-01       5.410e-09          -0.000           0.000           1.000       4.661e-04          0.1050
 158       2.221e-01      -3.273e-01      -3.730e-09           0.000           0.000           1.000       7.467e-04          0.1586
 159       2.044e-01      -3.273e-01       2.181e-08          -0.000           0.000           1.000       9.839e-04          0.2184
 160       1.818e-01      -3.273e-01       3.641e-08           0.000           0.000           1.000       1.164e-03          0.2873
 161       1.555e-01      -3.273e-01       3.446e-07           0.000           0.000           1.000       1.276e-03          0.3698
 162       1.272e-01      -3.273e-01       9.930e-07           0.000           0.000           1.000       1.315e-03          0.4724
 163       9.851e-02      -3.273e-01      -1.336e-08          -0.000           0.000           1.000       1.276e-03          0.6050
 164       7.104e-02      -3.273e-01      -1.739e-06           0.000           0.000           1.000       1.164e-03          0.7913
 165       4.642e-02      -3.273e-01       2.241e-06          -0.000           0.000           1.000       9.839e-04          1.0681
 166       2.607e-02      -3.273e-01      -2.672e-07          -0.000           0.000           1.000       7.467e-04          1.5462
 167       1.118e-02      -3.273e-01      -8.133e-07           0.000           0.000           1.000       4.661e-04          2.6037
 168       2.615e-03      -3.273e-01      -4.842e-07           0.000           0.000           1.000       1.585e-04          6.3152
Strip 14
 169       2.391e-01      -2.808e-01       3.006e-09           0.000           0.000           1.000       1.657e-04          0.0617
 170       2.339e-01      -2.808e-01       5.410e-09          -0.000           0.000           1.000       4.875e-04          0.1093
 171       2.221e-01      -2.808e-01      -3.730e-09           0.000          -0.000           1.000       7.809e-04          0.1649
 172       2.044e-01      -2.808e-01       2.181e-08          -0.000           0.000           1.000       1.029e-03          0.2269
 173       1.818e-01      -2.808e-01       3.641e-08           0.000           0.000           1.000       1.217e-03          0.2980
 174       1.555e-01      -2.808e-01       3.446e-07           0.000           0.000           1.000       1.335e-03          0.3828
 175       1.272e-01      -2.808e-01       9.930e-07           0.000          -0.000           1.000       1.375e-03          0.4879
 176       9.851e-02      -2.808e-01      -1.336e-08          -0.000           0.000           1.000       1.335e-03          0.6230
 177       7.104e-02      -2.808e-01      -1.739e-06           0.000           0.000           1.000       1.217e-03          0.8126
 178       4.642e-02      -2.808e-01       2.241e-06          -0.000           0.000           1.000       1.029e-03          1.0941
 179       2.607e-02      -2.808e-01      -2.672e-07          -0.000           0.000           1.000       7.809e-04          1.5806
 180       1.118e-02      -2.808e-01      -8.133e-07           0.000           0.000           1.000       4.875e-04          2.6581
 181       2.615e-03      -2.808e-01      -4.842e-07           0.000           0.000           1.000       1.657e-04          6.4434
Strip 15
 182       2.391e-01      -2.324e-01       3.006e-09           0.000           0.000           1.000       1.718e-04          0.0637
 183       2.339e-01      -2.324e-01       5.410e-09          -0.000           0.000           1.000       5.055e-04          0.1127
 184       2.221e-01      -2.324e-01      -3.730e-09           0.000           0.000           1.000       8.098e-04          0.1700
 185       2.044e-01      -2.324e-01       2.181e-08          -0.000          -0.000           1.000       1.067e-03          0.2337
 186       1.818e-01      -2.324e-01       3.641e-08           0.000           0.000           1.000       1.262e-03          0.3065
 187       1.555e-01      -2.324e-01       3.446e-07           0.000           0.000           1.000       1.384e-03          0.3931
 188       1.272e-01      -2.324e-01       9.930e-07           0.000           0.000           1.000       1.426e-03          0.5001
 189       9.851e-02      -2.324e-01      -1.336e-08          -0.000          -0.000           1.000       1.384e-03          0.6374
 190       7.104e-02      -2.324e-01      -1.739e-06           0.000           0.000           1.000       1.262e-03          0.8295
 191       4.642e-02      -2.324e-01       2.241e-06          -0.000           0.000           1.000       1.067e-03          1.1149
 192       2.607e-02      -2.324e-01      -2.672e-07          -0.000           0.000           1.000       8.098e-04          1.6083
 193       1.118e-02      -2.324e-01      -8.133e-07           0.000          -0.000           1.000       5.055e-04          2.7019
 194       2.615e-03      -2.324e-01      -4.842e-07           0.000           0.000           1.000       1.718e-04          6.5468
Strip 16
 195       2.391e-01      -1.825e-01       3.006e-09           0.000           0.000           1.000       1.768e-04          0.0652
 196       2.339e-01      -1.825e-01       5.410e-09          -0.000           0.000           1.000       5.201e-04          0.1153
 197       2.221e-01      -1.825e-01      -3.730e-09           0.000          -0.000           1.000       8.331e-04          0.1739
 198       2.044e-01      -1.825e-01       2.181e-08          -0.000           0.000           1.000       1.098e-03          0.2389
 199       1.818e-01      -1.825e-01       3.641e-08           0.000           0.000           1.000       1.299e-03          0.3131
 200       1.555e-01      -1.825e-01       3.446e-07           0.000           0.000           1.000       1.424e-03          0.4011
 201       1.272e-01      -1.825e-01       9.930e-07           0.000           0.000           1.000       1.467e-03          0.5095
 202       9.851e-02      -1.825e-01      -1.336e-08          -0.000           0.000           1.000       1.424e-03          0.6484
 203       7.104e-02      -1.825e-01      -1.739e-06           0.000           0.000           1.000       1.299e-03          0.8426
 204       4.642e-02      -1.825e-01       2.241e-06          -0.000          -0.000           1.000       1.098e-03          1.1310
 205       2.607e-02      -1.825e-01      -2.672e-07          -0.000           0.000           1.000       8.331e-04          1.6297
 206       1.118e-02      -1.825e-01      -8.133e-07           0.000           0.000           1.000       5.201e-04          2.7359
 207       2.615e-03      -1.825e-01      -4.842e-07           0.000           0.000           1.000       1.768e-04          6.6271
Strip 17
 208       2.391e-01      -1.312e-01       3.006e-09           0.000           0.000           1.000       1.805e-04          0.0663
 209       2.339e-01      -1.312e-01       5.410e-09          -0.000           0.000           1.000       5.311e-04          0.1172
 210       2.221e-01      -1.312e-01      -3.730e-09           0.000           0.000           1.000       8.508e-04          0.1767
 211       2.044e-01      -1.312e-01       2.181e-08          -0.000           0.000           1.000       1.121e-03          0.2426
 212       1.818e-01      -1.312e-01       3.641e-08           0.000          -0.000           1.000       1.326e-03          0.3178
 213       1.555e-01      -1.312e-01       3.446e-07           0.000           0.000           1.000       1.454e-03          0.4068
 214       1.272e-01      -1.312e-01       9.930e-07           0.000           0.000           1.000       1.498e-03          0.5163
 215       9.851e-02      -1.312e-01      -1.336e-08          -0.000           0.000           1.000       1.454e-03          0.6564
 216       7.104e-02      -1.312e-01      -1.739e-06           0.000           0.000           1.000       1.326e-03          0.8521
 217       4.642e-02      -1.312e-01       2.241e-06          -0.000           0.000           1.000       1.121e-03          1.1426
 218       2.607e-02      -1.312e-01      -2.672e-07          -0.000          -0.000           1.000       8.508e-04          1.6453
 219       1.118e-02      -1.312e-01      -8.133e-07           0.000          -0.000           1.000       5.311e-04          2.7608
 220       2.615e-03      -1.312e-01      -4.842e-07           0.000           0.000           1.000       1.805e-04          6.6860
Strip 18
 221       2.391e-01      -7.910e-02       3.006e-09           0.000           0.000           1.000       1.830e-04          0.0670
 222       2.339e-01      -7.910e-02       5.410e-09          -0.000           0.000           1.000       5.385e-04          0.1185
 223       2.221e-01      -7.910e-02      -3.730e-09           0.000           0.000           1.000       8.626e-04          0.1785
 224       2.044e-01      -7.910e-02       2.181e-08          -0.000          -0.000           1.000       1.137e-03          0.2451
 225       1.818e-01      -7.910e-02       3.641e-08           0.000           0.000           1.000       1.345e-03          0.3209
 226       1.555e-01      -7.910e-02       3.446e-07           0.000           0.000           1.000       1.474e-03          0.4105
 227       1.272e-01      -7.910e-02       9.930e-07           0.000          -0.000           1.000       1.518e-03          0.5207
 228       9.851e-02      -7.910e-02      -1.336e-08          -0.000           0.000           1.000       1.474e-03          0.6615
 229       7.104e-02      -7.910e-02      -1.739e-06           0.000           0.000           1.000       1.345e-03          0.8582
 230       4.642e-02      -7.910e-02       2.241e-06          -0.000          -0.000           1.000       1.137e-03          1.1503
 231       2.607e-02      -7.910e-02      -2.672e-07          -0.000          -0.000           1.000       8.626e-04          1.6555
 232       1.118e-02      -7.910e-02      -8.133e-07           0.000           0.000           1.000       5.385e-04          2.7771
 233       2.615e-03      -7.910e-02      -4.842e-07           0.000           0.000           1.000       1.830e-04          6.7246
Strip 19
 234       2.391e-01      -2.643e-02       3.006e-09           0.000           0.000           1.000       1.843e-04          0.0673
 235       2.339e-01      -2.643e-02       5.410e-09          -0.000           0.000           1.000       5.422e-04          0.1191
 236       2.221e-01      -2.643e-02      -3.730e-09           0.000           0.000           1.000       8.685e-04          0.1794
 237       2.044e-01      -2.643e-02       2.181e-08          -0.000           0.000           1.000       1.144e-03          0.2463
 238       1.818e-01      -2.643e-02       3.641e-08           0.000           0.000           1.000       1.354e-03          0.3224
 239       1.555e-01      -2.643e-02       3.446e-07           0.000           0.000           1.000       1.484e-03          0.4124
 240       1.272e-01      -2.643e-02       9.930e-07           0.000           0.000           1.000       1.529e-03          0.5229
 241       9.851e-02      -2.643e-02      -1.336e-08          -0.000          -0.000           1.000       1.484e-03          0.6641
 242       7.104e-02      -2.643e-02      -1.739e-06           0.000           0.000           1.000       1.354e-03          0.8613
 243       4.642e-02      -2.643e-02       2.241e-06          -0.000           0.000           1.000       1.144e-03          1.1540
 244       2.607e-02      -2.643e-02      -2.672e-07          -0.000           0.000           1.000       8.685e-04          1.6606
 245       1.118e-02      -2.643e-02      -8.133e-07           0.000           0.000           1.000       5.422e-04          2.7852
 246       2.615e-03      -2.643e-02      -4.842e-07           0.000           0.000           1.000       1.843e-04          6.7437
Strip 20
 247       2.391e-01       2.643e-02       3.006e-09           0.000           0.000           1.000       1.843e-04          0.0673
 248       2.339e-01       2.643e-02       5.410e-09          -0.000           0.000           1.000       5.422e-04          0.1191
 249       2.221e-01       2.643e-02      -3.730e-09           0.000           0.000           1.000       8.685e-04          0.1794
 250       2.044e-01       2.643e-02       2.181e-08          -0.000          -0.000           1.000       1.144e-03          0.2463
 251       1.818e-01       2.643e-02       3.641e-08           0.000           0.000           1.000       1.354e-03          0.3224
 252       1.555e-01       2.643e-02       3.446e-07           0.000           0.000           1.000       1.484e-03          0.4124
 253       1.272e-01       2.643e-02       9.930e-07           0.000           0.000           1.000       1.529e-03          0.5229
 254       9.851e-02       2.643e-02      -1.336e-08          -0.000           0.000           1.000       1.484e-03          0.6641
 255       7.104e-02       2.643e-02      -1.739e-06           0.000           0.000           1.000       1.354e-03          0.8613
 256       4.642e-02       2.643e-02       2.241e-06          -0.000           0.000           1.000       1.144e-03          1.1540
 257       2.607e-02       2.643e-02      -2.672e-07          -0.000           0.000           1.000       8.685e-04          1.6606
 258       1.118e-02       2.643e-02      -8.133e-07           0.000           0.000           1.000       5.422e-04          2.7852
 259       2.615e-03       2.643e-02      -4.842e-07           0.000           0.000           1.000       1.843e-04          6.7437
Strip 21
 260       2.391e-01       7.910e-02       3.006e-09           0.000           0.000           1.000       1.830e-04          0.0670
 261       2.339e-01       7.910e-02       5.410e-09          -0.000          -0.000           1.000       5.385e-04          0.1185
 262       2.221e-01       7.910e-02      -3.730e-09           0.000           0.000           1.000       8.626e-04          0.1785
 263       2.044e-01       7.910e-02       2.181e-08          -0.000           0.000           1.000       1.137e-03          0.2451
 264       1.818e-01       7.910e-02       3.641e-08           0.000          -0.000           1.000       1.345e-03          0.3209
 265       1.555e-01       7.910e-02       3.446e-07           0.000           0.000           1.000       1.474e-03          0.4105
 266       1.272e-01       7.910e-02       9.930e-07           0.000           0.000           1.000       1.518e-03          0.5207
 267       9.851e-02       7.910e-02      -1.336e-08          -0.000          -0.000           1.000       1.474e-03          0.6615
 268       7.104e-02       7.910e-02      -1.739e-06           0.000           0.000           1.000       1.345e-03          0.8582
 269       4.642e-02       7.910e-02       2.241e-06          -0.000           0.000           1.000       1.137e-03          1.1503
 270       2.607e-02       7.910e-02      -2.672e-07          -0.000           0.000           1.000       8.626e-04          1.6555
 271       1.118e-02       7.910e-02      -8.133e-07           0.000          -0.000           1.000       5.385e-04          2.7771
 272       2.615e-03       7.910e-02      -4.842e-07           0.000           0.000           1.000       1.830e-04          6.7246
Strip 22
 273       2.391e-01       1.312e-01       3.006e-09           0.000           0.000           1.000       1.805e-04          0.0663
 274       2.339e-01       1.312e-01       5.410e-09          -0.000           0.000           1.000       5.311e-04          0.1172
 275       2.221e-01       1.312e-01      -3.730e-09           0.000          -0.000           1.000       8.508e-04          0.1767
 276       2.044e-01       1.312e-01       2.181e-08          -0.000           0.000           1.000       1.121e-03          0.2426
 277       1.818e-01       1.312e-01       3.641e-08           0.000          -0.000           1.000       1.326e-03          0.3178
 278       1.555e-01       1.312e-01       3.446e-07           0.000           0.000           1.000       1.454e-03          0.4068
 279       1.272e-01       1.312e-01       9.930e-07           0.000          -0.000           1.000       1.498e-03          0.5163
 280       9.851e-02       1.312e-01      -1.336e-08          -0.000           0.000           1.000       1.454e-03          0.6564
 281       7.104e-02       1.312e-01      -1.739e-06           0.000          -0.000           1.000       1.326e-03          0.8521
 282       4.642e-02       1.312e-01       2.241e-06          -0.000           0.000           1.000       1.121e-03          1.1426
 283       2.607e-02       1.312e-01      -2.672e-07          -0.000           0.000           1.000       8.508e-04          1.6453
 284       1.118e-02       1.312e-01      -8.133e-07           0.000           0.000           1.000       5.311e-04          2.7608
 285       2.615e-03       1.312e-01      -4.842e-07           0.000           0.000           1.000       1.805e-04          6.6860
Strip 23
 286       2.391e-01       1.825e-01       3.006e-09           0.000           0.000           1.000       1.768e-04          0.0652
 287       2.339e-01       1.825e-01       5.410e-09          -0.000           0.000           1.000       5.201e-04          0.1153
 288       2.221e-01       1.825e-01      -3.730e-09           0.000           0.000           1.000       8.331e-04          0.1739
 289       2.044e-01       1.825e-01       2.181e-08          -0.000          -0.000           1.000       1.098e-03          0.2389
 290       1.818e-01       1.825e-01       3.641e-08           0.000           0.000           1.000       1.299e-03          0.3131
 291       1.555e-01       1.825e-01       3.446e-07           0.000           0.000           1.000       1.424e-03          0.4011
 292       1.272e-01       1.825e-01       9.930e-07           0.000           0.000           1.000       1.467e-03          0.5095
 293       9.851e-02       1.825e-01      -1.336e-08          -0.000          -0.000           1.000       1.424e-03          0.6484
 294       7.104e-02       1.825e-01      -1.739e-06           0.000           0.000           1.000       1.299e-03          0.8426
 295       4.642e-02       1.825e-01       2.241e-06          -0.000           0.000           1.000       1.098e-03          1.1310
 296       2.607e-02       1.825e-01      -2.672e-07          -0.000           0.000           1.000       8.331e-04          1.6297
 297       1.118e-02       1.825e-01      -8.133e-07           0.000          -0.000           1.000       5.201e-04          2.7359
 298       2.615e-03       1.825e-01      -4.842e-07           0.000           0.000           1.000       1.768e-04          6.6271
Strip 24
 299       2.391e-01       2.324e-01       3.006e-09           0.000           0.000           1.000       1.718e-04          0.0637
 300       2.339e-01       2.324e-01       5.410e-09          -0.000           0.000           1.000       5.055e-04          0.1127
 301       2.221e-01       2.324e-01      -3.730e-09           0.000           0.000           1.000       8.098e-04          0.1700
 302       2.044e-01       2.324e-01       2.181e-08          -0.000           0.000           1.000       1.067e-03          0.2337
 303       1.818e-01       2.324e-01       3.641e-08           0.000          -0.000           1.000       1.262e-03          0.3065
 304       1.555e-01       2.324e-01       3.446e-07           0.000           0.000           1.000       1.384e-03          0.3931
 305       1.272e-01       2.324e-01       9.930e-07           0.000           0.000           1.000       1.426e-03          0.5001
 306       9.851e-02       2.324e-01      -1.336e-08          -0.000          -0.000           1.000       1.384e-03          0.6374
 307       7.104e-02       2.324e-01      -1.739e-06           0.000           0.000           1.000       1.262e-03          0.8295
 308       4.642e-02       2.324e-01       2.241e-06          -0.000           0.000           1.000       1.067e-03          1.1149
 309       2.607e-02       2.324e-01      -2.672e-07          -0.000           0.000           1.000       8.098e-04          1.6083
 310       1.118e-02       2.324e-01      -8.133e-07           0.000           0.000           1.000       5.055e-04          2.7019
 311       2.615e-03       2.324e-01      -4.842e-07           0.000           0.000           1.000       1.718e-04          6.5468
Strip 25
 312       2.391e-01       2.808e-01       3.006e-09           0.000           0.000           1.000       1.657e-04          0.0617
 313       2.339e-01       2.808e-01       5.410e-09          -0.000           0.000           1.000       4.875e-04          0.1093
 314       2.221e-01       2.808e-01      -3.730e-09           0.000          -0.000           1.000       7.809e-04          0.1649
 315       2.044e-01       2.808e-01       2.181e-08          -0.000           0.000           1.000       1.029e-03          0.2269
 316       1.818e-01       2.808e-01       3.641e-08           0.000           0.000           1.000       1.217e-03          0.2980
 317       1.555e-01       2.808e-01       3.446e-07           0.000           0.000           1.000       1.335e-03          0.3828
 318       1.272e-01       2.808e-01       9.930e-07           0.000          -0.000           1.000       1.375e-03          0.4879
 319       9.851e-02       2.808e-01      -1.336e-08          -0.000           0.000           1.000       1.335e-03          0.6230
 320       7.104e-02       2.808e-01      -1.739e-06           0.000           0.000           1.000       1.217e-03          0.8126
 321       4.642e-02       2.808e-01       2.241e-06          -0.000           0.000           1.000       1.029e-03          1.0941
 322       2.607e-02       2.808e-01      -2.672e-07          -0.000           0.000           1.000       7.809e-04          1.5806
 323       1.118e-02       2.808e-01      -8.133e-07           0.000           0.000           1.000       4.875e-04          2.6581
 324       2.615e-03       2.808e-01      -4.842e-07           0.000           0.000           1.000       1.657e-04          6.4434
Strip 26
 325       2.391e-01       3.273e-01       3.006e-09           0.000           0.000           1.000       1.585e-04          0.0593
 326       2.339e-01       3.273e-01       5.410e-09          -0.000           0.000           1.000       4.661e-04          0.1050
 327       2.221e-01       3.273e-01      -3.730e-09           0.000           0.000           1.000       7.467e-04          0.1586
 328       2.044e-01       3.273e-01       2.181e-08          -0.000           0.000           1.000       9.839e-04          0.2184
 329       1.818e-01       3.273e-01       3.641e-08           0.000           0.000           1.000       1.164e-03          0.2873
 330       1.555e-01       3.273e-01       3.446e-07           0.000           0.000           1.000       1.276e-03          0.3698
 331       1.272e-01       3.273e-01       9.930e-07           0.000           0.000           1.000       1.315e-03          0.4724
 332       9.851e-02       3.273e-01      -1.336e-08          -0.000           0.000           1.000       1.276e-03          0.6050
 333       7.104e-02       3.273e-01      -1.739e-06           0.000           0.000           1.000       1.164e-03          0.7913
 334       4.642e-02       3.273e-01       2.241e-06          -0.000          -0.000           1.000       9.839e-04          1.0681
 335       2.607e-02       3.273e-01      -2.672e-07          -0.000          -0.000           1.000       7.467e-04          1.5462
 336       1.118e-02       3.273e-01      -8.133e-07           0.000           0.000           1.000       4.661e-04          2.6037
 337       2.615e-03       3.273e-01      -4.842e-07           0.000           0.000           1.000       1.585e-04          6.3152
Strip 27
 338       2.391e-01       3.716e-01       3.006e-09           0.000           0.000           1.000       1.501e-04          0.0564
 339       2.339e-01       3.716e-01       5.410e-09          -0.000           0.000           1.000       4.416e-04          0.0999
 340       2.221e-01       3.716e-01      -3.730e-09           0.000           0.000           1.000       7.074e-04          0.1509
 341       2.044e-01       3.716e-01       2.181e-08          -0.000          -0.000           1.000       9.322e-04          0.2081
 342       1.818e-01       3.716e-01       3.641e-08           0.000           0.000           1.000       1.103e-03          0.2742
 343       1.555e-01       3.716e-01       3.446e-07           0.000           0.000           1.000       1.209e-03          0.3538
 344       1.272e-01       3.716e-01       9.930e-07           0.000           0.000           1.000       1.245e-03          0.4534
 345       9.851e-02       3.716e-01      -1.336e-08          -0.000           0.000           1.000       1.209e-03          0.5827
 346       7.104e-02       3.716e-01      -1.739e-06           0.000           0.000           1.000       1.103e-03          0.7651
 347       4.642e-02       3.716e-01       2.241e-06          -0.000           0.000           1.000       9.322e-04          1.0363
 348       2.607e-02       3.716e-01      -2.672e-07          -0.000           0.000           1.000       7.074e-04          1.5042
 349       1.118e-02       3.716e-01      -8.133e-07           0.000          -0.000           1.000       4.416e-04          2.5377
 350       2.615e-03       3.716e-01      -4.842e-07           0.000           0.000           1.000       1.501e-04          6.1600
Strip 28
 351       2.391e-01       4.133e-01       3.006e-09           0.000           0.000           1.000       1.407e-04          0.0529
 352       2.339e-01       4.133e-01       5.410e-09          -0.000           0.000           1.000       4.141e-04          0.0938
 353       2.221e-01       4.133e-01      -3.730e-09           0.000          -0.000           1.000       6.633e-04          0.1418
 354       2.044e-01       4.133e-01       2.181e-08          -0.000           0.000           1.000       8.740e-04          0.1957
 355       1.818e-01       4.133e-01       3.641e-08           0.000           0.000           1.000       1.034e-03          0.2584
 356       1.555e-01       4.133e-01       3.446e-07           0.000           0.000           1.000       1.134e-03          0.3345
 357       1.272e-01       4.133e-01       9.930e-07           0.000           0.000           1.000       1.168e-03          0.4304
 358       9.851e-02       4.133e-01      -1.336e-08          -0.000          -0.000           1.000       1.134e-03          0.5557
 359       7.104e-02       4.133e-01      -1.739e-06           0.000           0.000           1.000       1.034e-03          0.7334
 360       4.642e-02       4.133e-01       2.241e-06          -0.000           0.000           1.000       8.740e-04          0.9979
 361       2.607e-02       4.133e-01      -2.672e-07          -0.000           0.000           1.000       6.633e-04          1.4539
 362       1.118e-02       4.133e-01      -8.133e-07           0.000           0.000           1.000       4.141e-04          2.4589
 363       2.615e-03       4.133e-01      -4.842e-07           0.000           0.000           1.000       1.407e-04          5.9752
Strip 29
 364       2.391e-01       4.522e-01       3.006e-09           0.000           0.000           1.000       1.304e-04          0.0490
 365       2.339e-01       4.522e-01       5.410e-09          -0.000           0.000           1.000       3.837e-04          0.0867
 366       2.221e-01       4.522e-01      -3.730e-09           0.000          -0.000           1.000       6.147e-04          0.1312
 367       2.044e-01       4.522e-01       2.181e-08          -0.000           0.000           1.000       8.099e-04          0.1814
 368       1.818e-01       4.522e-01       3.641e-08           0.000          -0.000           1.000       9.581e-04          0.2400
 369       1.555e-01       4.522e-01       3.446e-07           0.000           0.000           1.000       1.051e-03          0.3117
 370       1.272e-01       4.522e-01       9.930e-07           0.000          -0.000           1.000       1.082e-03          0.4030
 371       9.851e-02       4.522e-01      -1.336e-08          -0.000           0.000           1.000       1.051e-03          0.5234
 372       7.104e-02       4.522e-01      -1.739e-06           0.000           0.000           1.000       9.581e-04          0.6954
 373       4.642e-02       4.522e-01       2.241e-06          -0.000           0.000           1.000       8.099e-04          0.9520
 374       2.607e-02       4.522e-01      -2.672e-07          -0.000           0.000           1.000       6.147e-04          1.3942
 375       1.118e-02       4.522e-01      -8.133e-07           0.000           0.000           1.000       3.837e-04          2.3660
 376       2.615e-03       4.522e-01      -4.842e-07           0.000           0.000           1.000       1.304e-04          5.7582
Strip 30
 377       2.391e-01       4.880e-01       3.006e-09           0.000           0.000           1.000       1.192e-04          0.0445
 378       2.339e-01       4.880e-01       5.410e-09          -0.000           0.000           1.000       3.507e-04          0.0789
 379       2.221e-01       4.880e-01      -3.730e-09           0.000           0.000           1.000       5.618e-04          0.1194
 380       2.044e-01       4.880e-01       2.181e-08          -0.000          -0.000           1.000       7.403e-04          0.1652
 381       1.818e-01       4.880e-01       3.641e-08           0.000           0.000           1.000       8.757e-04          0.2190
 382       1.555e-01       4.880e-01       3.446e-07           0.000           0.000           1.000       9.602e-04          0.2854
 383       1.272e-01       4.880e-01       9.930e-07           0.000           0.000           1.000       9.890e-04          0.3710
 384       9.851e-02       4.880e-01      -1.336e-08          -0.000          -0.000           1.000       9.602e-04          0.4851
 385       7.104e-02       4.880e-01      -1.739e-06           0.000           0.000           1.000       8.757e-04          0.6502
 386       4.642e-02       4.880e-01       2.241e-06          -0.000           0.000           1.000       7.403e-04          0.8977
 387       2.607e-02       4.880e-01      -2.672e-07          -0.000           0.000           1.000       5.618e-04          1.3240
 388       1.118e-02       4.880e-01      -8.133e-07           0.000          -0.000           1.000       3.507e-04          2.2577
 389       2.615e-03       4.880e-01      -4.842e-07           0.000           0.000           1.000       1.192e-04          5.5059
Strip 31
 390       2.391e-01       5.204e-01       3.006e-09           0.000           0.000           1.000       1.072e-04          0.0398
 391       2.339e-01       5.204e-01       5.410e-09          -0.000           0.000           1.000       3.153e-04          0.0705
 392       2.221e-01       5.204e-01      -3.730e-09           0.000           0.000           1.000       5.051e-04          0.1066
 393       2.044e-01       5.204e-01       2.181e-08          -0.000           0.000           1.000       6.656e-04          0.1475
 394       1.818e-01       5.204e-01       3.641e-08           0.000          -0.000           1.000       7.873e-04          0.1957
 395       1.555e-01       5.204e-01       3.446e-07           0.000           0.000           1.000       8.633e-04          0.2558
 396       1.272e-01       5.204e-01       9.930e-07           0.000          -0.000           1.000       8.892e-04          0.3343
 397       9.851e-02       5.204e-01      -1.336e-08          -0.000           0.000           1.000       8.633e-04          0.4407
 398       7.104e-02       5.204e-01      -1.739e-06           0.000           0.000           1.000       7.873e-04          0.5971
 399       4.642e-02       5.204e-01       2.241e-06          -0.000          -0.000           1.000       6.656e-04          0.8337
 400       2.607e-02       5.204e-01      -2.672e-07          -0.000          -0.000           1.000       5.051e-04          1.2419
 401       1.118e-02       5.204e-01      -8.133e-07           0.000           0.000           1.000       3.153e-04          2.1321
 402       2.615e-03       5.204e-01      -4.842e-07           0.000           0.000           1.000       1.072e-04          5.2152
Strip 32
 403       2.391e-01       5.493e-01       3.006e-09           0.000           0.000           1.000       9.442e-05          0.0348
 404       2.339e-01       5.493e-01       5.410e-09          -0.000           0.000           1.000       2.778e-04          0.0617
 405       2.221e-01       5.493e-01      -3.730e-09           0.000           0.000           1.000       4.450e-04          0.0932
 406       2.044e-01       5.493e-01       2.181e-08          -0.000          -0.000           1.000       5.863e-04          0.1288
 407       1.818e-01       5.493e-01       3.641e-08           0.000           0.000           1.000       6.936e-04          0.1709
 408       1.555e-01       5.493e-01       3.446e-07           0.000           0.000           1.000       7.605e-04          0.2237
 409       1.272e-01       5.493e-01       9.930e-07           0.000          -0.000           1.000       7.833e-04          0.2936
 410       9.851e-02       5.493e-01      -1.336e-08          -0.000           0.000           1.000       7.605e-04          0.3900
 411       7.104e-02       5.493e-01      -1.739e-06           0.000           0.000           1.000       6.936e-04          0.5352
 412       4.642e-02       5.493e-01       2.241e-06          -0.000           0.000           1.000       5.863e-04          0.7584
 413       2.607e-02       5.493e-01      -2.672e-07          -0.000           0.000           1.000       4.450e-04          1.1460
 414       1.118e-02       5.493e-01      -8.133e-07           0.000           0.000           1.000       2.778e-04          1.9873
 415       2.615e-03       5.493e-01      -4.842e-07           0.000           0.000           1.000       9.442e-05          4.8822
Strip 33
 416       2.391e-01       5.745e-01       3.006e-09           0.000           0.000           1.000       8.101e-05          0.0299
 417       2.339e-01       5.745e-01       5.410e-09          -0.000           0.000           1.000       2.383e-04          0.0529
 418       2.221e-01       5.745e-01      -3.730e-09           0.000           0.000           1.000       3.818e-04          0.0797
 419       2.044e-01       5.745e-01       2.181e-08          -0.000           0.000           1.000       5.030e-04          0.1097
 420       1.818e-01       5.745e-01       3.641e-08           0.000           0.000           1.000       5.951e-04          0.1453
 421       1.555e-01       5.745e-01       3.446e-07           0.000           0.000           1.000       6.525e-04          0.1901
 422       1.272e-01       5.745e-01       9.930e-07           0.000           0.000           1.000       6.721e-04          0.2501
 423       9.851e-02       5.745e-01      -1.336e-08          -0.000           0.000           1.000       6.525e-04          0.3341
 424       7.104e-02       5.745e-01      -1.739e-06           0.000           0.000           1.000       5.951e-04          0.4645
 425       4.642e-02       5.745e-01       2.241e-06          -0.000           0.000           1.000       5.030e-04          0.6704
 426       2.607e-02       5.745e-01      -2.672e-07          -0.000           0.000           1.000       3.818e-04          1.0337
 427       1.118e-02       5.745e-01      -8.133e-07           0.000           0.000           1.000       2.383e-04          1.8204
 428       2.615e-03       5.745e-01      -4.842e-07           0.000           0.000           1.000       8.101e-05          4.5026
Strip 34
 429       2.391e-01       5.957e-01       3.006e-09           0.000           0.000           1.000       6.705e-05          0.0251
 430       2.339e-01       5.957e-01       5.410e-09          -0.000           0.000           1.000       1.972e-04          0.0443
 431       2.221e-01       5.957e-01      -3.730e-09           0.000           0.000           1.000       3.160e-04          0.0663
 432       2.044e-01       5.957e-01       2.181e-08          -0.000           0.000           1.000       4.164e-04          0.0909
 433       1.818e-01       5.957e-01       3.641e-08           0.000           0.000           1.000       4.925e-04          0.1198
 434       1.555e-01       5.957e-01       3.446e-07           0.000           0.000           1.000       5.401e-04          0.1563
 435       1.272e-01       5.957e-01       9.930e-07           0.000           0.000           1.000       5.562e-04          0.2055
 436       9.851e-02       5.957e-01      -1.336e-08          -0.000           0.000           1.000       5.401e-04          0.2751
 437       7.104e-02       5.957e-01      -1.739e-06           0.000           0.000           1.000       4.925e-04          0.3863
 438       4.642e-02       5.957e-01       2.241e-06          -0.000           0.000           1.000       4.164e-04          0.5686
 439       2.607e-02       5.957e-01      -2.672e-07          -0.000           0.000           1.000       3.160e-04          0.9017
 440       1.118e-02       5.957e-01      -8.133e-07           0.000           0.000           1.000       1.972e-04          1.6273
 441       2.615e-03       5.957e-01      -4.842e-07           0.000           0.000           1.000       6.705e-05          4.0705
Strip 35
 442       2.391e-01       6.129e-01       3.006e-09           0.000           0.000           1.000       5.263e-05          0.0206
 443       2.339e-01       6.129e-01       5.410e-09          -0.000           0.000           1.000       1.548e-04          0.0360
 444       2.221e-01       6.129e-01      -3.730e-09           0.000           0.000           1.000       2.480e-04          0.0534
 445       2.044e-01       6.129e-01       2.181e-08          -0.000           0.000           1.000       3.268e-04          0.0725
 446       1.818e-01       6.129e-01       3.641e-08           0.000           0.000           1.000       3.866e-04          0.0949
 447       1.555e-01       6.129e-01       3.446e-07           0.000           0.000           1.000       4.239e-04          0.1234
 448       1.272e-01       6.129e-01       9.930e-07           0.000           0.000           1.000       4.366e-04          0.1618
 449       9.851e-02       6.129e-01      -1.336e-08          -0.000           0.000           1.000       4.239e-04          0.2160
 450       7.104e-02       6.129e-01      -1.739e-06           0.000           0.000           1.000       3.866e-04          0.3045
 451       4.642e-02       6.129e-01       2.241e-06          -0.000           0.000           1.000       3.268e-04          0.4543
 452       2.607e-02       6.129e-01      -2.672e-07          -0.000           0.000           1.000       2.480e-04          0.7456
 453       1.118e-02       6.129e-01      -8.133e-07           0.000           0.000           1.000       1.548e-04          1.4013
 454       2.615e-03       6.129e-01      -4.842e-07           0.000           0.000           1.000       5.263e-05          3.5772
Strip 36
 455       2.391e-01       6.258e-01       3.006e-09           0.000           0.000           1.000       3.785e-05          0.0162
 456       2.339e-01       6.258e-01       5.410e-09          -0.000           0.000           1.000       1.114e-04          0.0279
 457       2.221e-01       6.258e-01      -3.730e-09           0.000           0.000           1.000       1.784e-04          0.0407
 458       2.044e-01       6.258e-01       2.181e-08          -0.000           0.000           1.000       2.351e-04          0.0547
 459       1.818e-01       6.258e-01       3.641e-08           0.000           0.000           1.000       2.781e-04          0.0712
 460       1.555e-01       6.258e-01       3.446e-07           0.000           0.000           1.000       3.049e-04          0.0921
 461       1.272e-01       6.258e-01       9.930e-07           0.000           0.000           1.000       3.140e-04          0.1203
 462       9.851e-02       6.258e-01      -1.336e-08          -0.000           0.000           1.000       3.049e-04          0.1597
 463       7.104e-02       6.258e-01      -1.739e-06           0.000           0.000           1.000       2.781e-04          0.2245
 464       4.642e-02       6.258e-01       2.241e-06          -0.000           0.000           1.000       2.351e-04          0.3350
 465       2.607e-02       6.258e-01      -2.672e-07          -0.000          -0.000           1.000       1.784e-04          0.5642
 466       1.118e-02       6.258e-01      -8.133e-07           0.000          -0.000           1.000       1.114e-04          1.1297
 467       2.615e-03       6.258e-01      -4.842e-07           0.000           0.000           1.000       3.785e-05          3.0092
Strip 37
 468       2.391e-01       6.345e-01       3.006e-09           0.000           0.000           1.000       2.281e-05          0.0120
 469       2.339e-01       6.345e-01       5.410e-09          -0.000           0.000           1.000       6.712e-05          0.0198
 470       2.221e-01       6.345e-01      -3.730e-09           0.000           0.000           1.000       1.075e-04          0.0282
 471       2.044e-01       6.345e-01       2.181e-08          -0.000           0.000           1.000       1.417e-04          0.0375
 472       1.818e-01       6.345e-01       3.641e-08           0.000           0.000           1.000       1.676e-04          0.0485
 473       1.555e-01       6.345e-01       3.446e-07           0.000           0.000           1.000       1.838e-04          0.0626
 474       1.272e-01       6.345e-01       9.930e-07           0.000           0.000           1.000       1.893e-04          0.0815
 475       9.851e-02       6.345e-01      -1.336e-08          -0.000           0.000           1.000       1.838e-04          0.1075
 476       7.104e-02       6.345e-01      -1.739e-06           0.000           0.000           1.000       1.676e-04          0.1504
 477       4.642e-02       6.345e-01       2.241e-06          -0.000           0.000           1.000       1.417e-04          0.2222
 478       2.607e-02       6.345e-01      -2.672e-07          -0.000           0.000           1.000       1.075e-04          0.3729
 479       1.118e-02       6.345e-01      -8.133e-07           0.000           0.000           1.000       6.712e-05          0.7933
 480       2.615e-03       6.345e-01      -4.842e-07           0.000           0.000           1.000       2.281e-05          2.3415
Strip 38
 481       2.391e-01       6.389e-01       3.006e-09           0.000           0.000           1.000       7.622e-06          0.0076
 482       2.339e-01       6.389e-01       5.410e-09          -0.000           0.000           1.000       2.242e-05          0.0117
 483       2.221e-01       6.389e-01      -3.730e-09           0.000           0.000           1.000       3.592e-05          0.0164
 484       2.044e-01       6.389e-01       2.181e-08          -0.000           0.000           1.000       4.733e-05          0.0216
 485       1.818e-01       6.389e-01       3.641e-08           0.000           0.000           1.000       5.599e-05          0.0280
 486       1.555e-01       6.389e-01       3.446e-07           0.000           0.000           1.000       6.140e-05          0.0360
 487       1.272e-01       6.389e-01       9.930e-07           0.000           0.000           1.000       6.324e-05          0.0468
 488       9.851e-02       6.389e-01      -1.336e-08          -0.000           0.000           1.000       6.140e-05          0.0616
 489       7.104e-02       6.389e-01      -1.739e-06           0.000           0.000           1.000       5.599e-05          0.0860
 490       4.642e-02       6.389e-01       2.241e-06          -0.000           0.000           1.000       4.733e-05          0.1262
 491       2.607e-02       6.389e-01      -2.672e-07          -0.000           0.000           1.000       3.592e-05          0.2090
 492       1.118e-02       6.389e-01      -8.133e-07           0.000           0.000           1.000       2.242e-05          0.4369
 493       2.615e-03       6.389e-01      -4.842e-07           0.000           0.000           1.000       7.622e-06          1.5119










