xflr5 v6.50

Plane Name
T1-44.0 m/s-VLM1
QInf  =   44.000000 m/s
Alpha =   -2.000000
Beta  =    0.000°
Phi   =    0.000°
Ctrl  =    0.000
CL    =   -0.149441
Cy    =    0.000000
Cd    =    0.008168     ICd   =    0.001209     PCd   =    0.006959
Cl   = 1.54178e-16
Cm   =   0.0360976
ICn   =   -0.000000     PCn   =    0.000000 
XCP   =    0.057786     YCP   =    0.000000     ZCP   =   -0.000000  
XNP   =    0.000000
Bending =   -4.767858

Main Wing
  y-span        Chord      Ai         Cl        PCd          ICd        CmGeom    CmAirf@chord/4    XTrtop    XTrBot      XCP       BM
   -0.6394     0.2025     0.781   -0.018116    0.007387    0.000247    0.006265   -0.001731     0.6826    0.6749    0.1544    0.0000
   -0.6374     0.2110     0.775   -0.028953    0.007265    0.000392    0.008909   -0.002408     0.6823    0.6698    0.1668   -0.0000
   -0.6354     0.2180     0.770   -0.035173    0.007177    0.000473    0.009858   -0.002567     0.6816    0.6664    0.1770   -0.0001
   -0.6334     0.2215     0.765   -0.040905    0.007134    0.000546    0.010953   -0.002768     0.6818    0.6641    0.1823   -0.0001
   -0.6314     0.2247     0.761   -0.045380    0.007096    0.000603    0.011659   -0.002847     0.6818    0.6622    0.1873   -0.0003
   -0.6294     0.2272     0.757   -0.049541    0.007068    0.000654    0.012332   -0.002913     0.6819    0.6606    0.1912   -0.0004
   -0.6277     0.2292     0.753   -0.052130    0.007045    0.000685    0.012631   -0.002930     0.6819    0.6594    0.1938   -0.0006
   -0.6267     0.2300     0.751   -0.054525    0.007037    0.000715    0.013124   -0.002962     0.6822    0.6587    0.1957   -0.0008
   -0.6250     0.2313     0.747   -0.057492    0.007024    0.000750    0.013631   -0.002987     0.6824    0.6577    0.1980   -0.0010
   -0.6239     0.2321     0.745   -0.058568    0.007015    0.000762    0.013730   -0.002983     0.6824    0.6572    0.1991   -0.0012
   -0.6237     0.2323     0.745   -0.059489    0.007012    0.000773    0.013941   -0.002984     0.6826    0.6570    0.1998   -0.0013
   -0.6231     0.2326     0.743   -0.060634    0.007008    0.000787    0.014163   -0.002983     0.6827    0.6567    0.2008   -0.0013
   -0.6224     0.2332     0.742   -0.061959    0.007002    0.000802    0.014392   -0.002976     0.6828    0.6563    0.2020   -0.0015
   -0.6215     0.2339     0.740   -0.063409    0.006994    0.000819    0.014621   -0.002963     0.6830    0.6558    0.2033   -0.0017
   -0.6205     0.2346     0.738   -0.064863    0.006985    0.000836    0.014826   -0.002946     0.6831    0.6553    0.2046   -0.0019
   -0.6200     0.2350     0.737   -0.065279    0.006981    0.000827    0.014812   -0.002939     0.6830    0.6551    0.2049   -0.0020
   -0.6199     0.2350     0.737   -0.065540    0.006980    0.000843    0.014893   -0.002937     0.6831    0.6550    0.2052   -0.0021
   -0.6198     0.2351     0.737   -0.065921    0.006980    0.000848    0.014980   -0.002936     0.6832    0.6549    0.2055   -0.0021
   -0.6196     0.2352     0.736   -0.066360    0.006979    0.000853    0.015073   -0.002933     0.6832    0.6548    0.2058   -0.0021
   -0.6193     0.2353     0.736   -0.066862    0.006977    0.000859    0.015173   -0.002931     0.6833    0.6547    0.2062   -0.0022
   -0.6190     0.2355     0.735   -0.067427    0.006975    0.000865    0.015282   -0.002928     0.6834    0.6545    0.2066   -0.0023
   -0.6186     0.2357     0.734   -0.068051    0.006973    0.000872    0.015399   -0.002925     0.6835    0.6543    0.2070   -0.0024
   -0.6182     0.2359     0.733   -0.068726    0.006971    0.000880    0.015522   -0.002921     0.6836    0.6541    0.2075   -0.0025
   -0.6178     0.2361     0.732   -0.069444    0.006968    0.000888    0.015651   -0.002916     0.6837    0.6539    0.2080   -0.0026
   -0.6173     0.2364     0.732   -0.070191    0.006965    0.000896    0.015782   -0.002911     0.6838    0.6537    0.2085   -0.0028
   -0.6168     0.2366     0.731   -0.070954    0.006962    0.000905    0.015913   -0.002906     0.6839    0.6535    0.2090   -0.0029
   -0.6163     0.2369     0.729   -0.071701    0.006959    0.000913    0.016036   -0.002900     0.6839    0.6533    0.2095   -0.0031
   -0.6160     0.2370     0.729   -0.071993    0.006957    0.000907    0.016065   -0.002899     0.6840    0.6532    0.2097   -0.0032
   -0.6159     0.2370     0.729   -0.072202    0.006957    0.000919    0.016122   -0.002899     0.6840    0.6531    0.2099   -0.0032
   -0.6158     0.2371     0.728   -0.072501    0.006957    0.000922    0.016191   -0.002898     0.6841    0.6531    0.2100   -0.0033
   -0.6156     0.2371     0.728   -0.072874    0.006956    0.000926    0.016273   -0.002899     0.6841    0.6530    0.2102   -0.0033
   -0.6153     0.2372     0.728   -0.073323    0.006955    0.000931    0.016370   -0.002899     0.6842    0.6529    0.2105   -0.0034
   -0.6150     0.2372     0.727   -0.073848    0.006954    0.000937    0.016482   -0.002900     0.6843    0.6527    0.2107   -0.0035
   -0.6146     0.2373     0.726   -0.074443    0.006953    0.000944    0.016607   -0.002900     0.6844    0.6526    0.2110   -0.0037
   -0.6142     0.2374     0.725   -0.075102    0.006952    0.000951    0.016746   -0.002901     0.6846    0.6524    0.2114   -0.0038
   -0.6138     0.2376     0.724   -0.075814    0.006951    0.000959    0.016895   -0.002901     0.6847    0.6523    0.2117   -0.0040
   -0.6133     0.2377     0.723   -0.076570    0.006949    0.000967    0.017052   -0.002901     0.6848    0.6521    0.2121   -0.0042
   -0.6128     0.2378     0.722   -0.077357    0.006948    0.000976    0.017216   -0.002900     0.6850    0.6519    0.2125   -0.0043
   -0.6123     0.2379     0.721   -0.078158    0.006946    0.000984    0.017382   -0.002898     0.6851    0.6517    0.2129   -0.0046
   -0.6119     0.2380     0.721   -0.078699    0.006945    0.000990    0.017495   -0.002897     0.6852    0.6516    0.2132   -0.0047
   -0.6117     0.2381     0.720   -0.079213    0.006944    0.000996    0.017607   -0.002896     0.6853    0.6514    0.2134   -0.0048
   -0.6111     0.2382     0.719   -0.080036    0.006943    0.001005    0.017779   -0.002893     0.6855    0.6512    0.2139   -0.0050
   -0.6104     0.2384     0.718   -0.081147    0.006940    0.001017    0.018007   -0.002888     0.6857    0.6510    0.2144   -0.0053
   -0.6095     0.2386     0.716   -0.082499    0.006937    0.001031    0.018284   -0.002880     0.6859    0.6506    0.2151   -0.0057
   -0.6085     0.2389     0.714   -0.084022    0.006935    0.001047    0.018596   -0.002869     0.6862    0.6503    0.2159   -0.0062
   -0.6077     0.2391     0.712   -0.085403    0.006933    0.001062    0.018887   -0.002858     0.6865    0.6500    0.2165   -0.0066
   -0.6067     0.2393     0.710   -0.086954    0.006930    0.001078    0.019203   -0.002845     0.6867    0.6496    0.2173   -0.0071
   -0.6050     0.2397     0.707   -0.089531    0.006926    0.001105    0.019714   -0.002823     0.6872    0.6490    0.2185   -0.0081
   -0.6037     0.2400     0.704   -0.091741    0.006924    0.001128    0.020176   -0.002820     0.6877    0.6485    0.2193   -0.0089
   -0.6027     0.2400     0.702   -0.094007    0.006924    0.001153    0.020735   -0.002827     0.6882    0.6480    0.2199   -0.0095
   -0.6010     0.2400     0.699   -0.097967    0.006924    0.001195    0.021703   -0.002849     0.6891    0.6473    0.2209   -0.0106
   -0.5772     0.2400     0.665   -0.106290    0.006923    0.001233    0.023736   -0.002897     0.6910    0.6456    0.2227   -0.0276
   -0.4893     0.2400     0.564   -0.136518    0.006940    0.001343    0.032009   -0.002181     0.6982    0.6395    0.2340   -0.2116
   -0.3269     0.2400     0.450   -0.159962    0.006959    0.001255    0.038857   -0.001194     0.7039    0.6347    0.2425   -1.3720
   -0.1148     0.2400     0.388   -0.170458    0.006967    0.001153    0.041904   -0.000772     0.7064    0.6326    0.2455   -4.7679
    0.1148     0.2400     0.388   -0.170458    0.006967    0.001153    0.041904   -0.000772     0.7064    0.6326    0.2455   -4.7679
    0.3269     0.2400     0.450   -0.159962    0.006959    0.001255    0.038857   -0.001194     0.7039    0.6347    0.2425   -1.3720
    0.4893     0.2400     0.564   -0.136518    0.006940    0.001343    0.032009   -0.002181     0.6982    0.6395    0.2340   -0.2116
    0.5772     0.2400     0.665   -0.106290    0.006923    0.001233    0.023736   -0.002897     0.6910    0.6456    0.2227   -0.0276
    0.6010     0.2400     0.699   -0.097967    0.006924    0.001195    0.021703   -0.002849     0.6891    0.6473    0.2209   -0.0106
    0.6027     0.2400     0.702   -0.094007    0.006924    0.001153    0.020735   -0.002827     0.6882    0.6480    0.2199   -0.0095
    0.6037     0.2400     0.704   -0.091741    0.006924    0.001128    0.020176   -0.002820     0.6877    0.6485    0.2193   -0.0089
    0.6050     0.2397     0.707   -0.089531    0.006926    0.001105    0.019714   -0.002823     0.6872    0.6490    0.2185   -0.0081
    0.6067     0.2393     0.710   -0.086954    0.006930    0.001078    0.019203   -0.002845     0.6867    0.6496    0.2173   -0.0071
    0.6077     0.2391     0.712   -0.085403    0.006933    0.001062    0.018887   -0.002858     0.6865    0.6500    0.2165   -0.0066
    0.6085     0.2389     0.714   -0.084022    0.006935    0.001047    0.018596   -0.002869     0.6862    0.6503    0.2159   -0.0062
    0.6095     0.2386     0.716   -0.082499    0.006937    0.001031    0.018284   -0.002880     0.6859    0.6506    0.2151   -0.0057
    0.6104     0.2384     0.718   -0.081147    0.006940    0.001017    0.018007   -0.002888     0.6857    0.6510    0.2144   -0.0053
    0.6111     0.2382     0.719   -0.080036    0.006943    0.001005    0.017779   -0.002893     0.6855    0.6512    0.2139   -0.0050
    0.6117     0.2381     0.720   -0.079213    0.006944    0.000996    0.017607   -0.002896     0.6853    0.6514    0.2134   -0.0048
    0.6119     0.2380     0.721   -0.078699    0.006945    0.000990    0.017495   -0.002897     0.6852    0.6516    0.2132   -0.0047
    0.6123     0.2379     0.721   -0.078158    0.006946    0.000984    0.017382   -0.002898     0.6851    0.6517    0.2129   -0.0046
    0.6128     0.2378     0.722   -0.077357    0.006948    0.000976    0.017216   -0.002900     0.6850    0.6519    0.2125   -0.0043
    0.6133     0.2377     0.723   -0.076570    0.006949    0.000967    0.017052   -0.002901     0.6848    0.6521    0.2121   -0.0042
    0.6138     0.2376     0.724   -0.075814    0.006951    0.000959    0.016895   -0.002901     0.6847    0.6523    0.2117   -0.0040
    0.6142     0.2374     0.725   -0.075102    0.006952    0.000951    0.016746   -0.002901     0.6846    0.6524    0.2114   -0.0038
    0.6146     0.2373     0.726   -0.074443    0.006953    0.000944    0.016607   -0.002900     0.6844    0.6526    0.2110   -0.0037
    0.6150     0.2372     0.727   -0.073848    0.006954    0.000937    0.016482   -0.002900     0.6843    0.6527    0.2107   -0.0035
    0.6153     0.2372     0.728   -0.073323    0.006955    0.000931    0.016370   -0.002899     0.6842    0.6529    0.2105   -0.0034
    0.6156     0.2371     0.728   -0.072874    0.006956    0.000926    0.016273   -0.002899     0.6841    0.6530    0.2102   -0.0033
    0.6158     0.2371     0.728   -0.072501    0.006957    0.000922    0.016191   -0.002898     0.6841    0.6531    0.2100   -0.0033
    0.6159     0.2370     0.729   -0.072202    0.006957    0.000919    0.016122   -0.002899     0.6840    0.6531    0.2099   -0.0032
    0.6160     0.2370     0.729   -0.071993    0.006957    0.000907    0.016065   -0.002899     0.6840    0.6532    0.2097   -0.0032
    0.6163     0.2369     0.729   -0.071701    0.006959    0.000913    0.016036   -0.002900     0.6839    0.6533    0.2095   -0.0031
    0.6168     0.2366     0.731   -0.070954    0.006962    0.000905    0.015913   -0.002906     0.6839    0.6535    0.2090   -0.0029
    0.6173     0.2364     0.732   -0.070191    0.006965    0.000896    0.015782   -0.002911     0.6838    0.6537    0.2085   -0.0028
    0.6178     0.2361     0.732   -0.069444    0.006968    0.000888    0.015651   -0.002916     0.6837    0.6539    0.2080   -0.0026
    0.6182     0.2359     0.733   -0.068726    0.006971    0.000880    0.015522   -0.002921     0.6836    0.6541    0.2075   -0.0025
    0.6186     0.2357     0.734   -0.068051    0.006973    0.000872    0.015399   -0.002925     0.6835    0.6543    0.2070   -0.0024
    0.6190     0.2355     0.735   -0.067427    0.006975    0.000865    0.015282   -0.002928     0.6834    0.6545    0.2066   -0.0023
    0.6193     0.2353     0.736   -0.066862    0.006977    0.000859    0.015173   -0.002931     0.6833    0.6547    0.2062   -0.0022
    0.6196     0.2352     0.736   -0.066360    0.006979    0.000853    0.015073   -0.002933     0.6832    0.6548    0.2058   -0.0021
    0.6198     0.2351     0.737   -0.065921    0.006980    0.000848    0.014980   -0.002936     0.6832    0.6549    0.2055   -0.0021
    0.6199     0.2350     0.737   -0.065540    0.006980    0.000843    0.014893   -0.002937     0.6831    0.6550    0.2052   -0.0021
    0.6200     0.2350     0.737   -0.065279    0.006981    0.000827    0.014812   -0.002939     0.6830    0.6551    0.2049   -0.0020
    0.6205     0.2346     0.738   -0.064863    0.006985    0.000836    0.014826   -0.002946     0.6831    0.6553    0.2046   -0.0019
    0.6215     0.2339     0.740   -0.063409    0.006994    0.000819    0.014621   -0.002963     0.6830    0.6558    0.2033   -0.0017
    0.6224     0.2332     0.742   -0.061959    0.007002    0.000802    0.014392   -0.002976     0.6828    0.6563    0.2020   -0.0015
    0.6231     0.2326     0.743   -0.060634    0.007008    0.000787    0.014163   -0.002983     0.6827    0.6567    0.2008   -0.0013
    0.6237     0.2323     0.745   -0.059489    0.007012    0.000773    0.013941   -0.002984     0.6826    0.6570    0.1998   -0.0013
    0.6239     0.2321     0.745   -0.058568    0.007015    0.000762    0.013730   -0.002983     0.6824    0.6572    0.1991   -0.0012
    0.6250     0.2313     0.747   -0.057492    0.007024    0.000750    0.013631   -0.002987     0.6824    0.6577    0.1980   -0.0010
    0.6267     0.2300     0.751   -0.054525    0.007037    0.000715    0.013124   -0.002962     0.6822    0.6587    0.1957   -0.0008
    0.6277     0.2292     0.753   -0.052130    0.007045    0.000685    0.012631   -0.002930     0.6819    0.6594    0.1938   -0.0006
    0.6294     0.2272     0.757   -0.049541    0.007068    0.000654    0.012332   -0.002913     0.6819    0.6606    0.1912   -0.0004
    0.6314     0.2247     0.761   -0.045380    0.007096    0.000603    0.011659   -0.002847     0.6818    0.6622    0.1873   -0.0003
    0.6334     0.2215     0.765   -0.040905    0.007134    0.000546    0.010953   -0.002768     0.6818    0.6641    0.1823   -0.0001
    0.6354     0.2180     0.770   -0.035173    0.007177    0.000473    0.009858   -0.002567     0.6816    0.6664    0.1770   -0.0001
    0.6374     0.2110     0.775   -0.028953    0.007265    0.000392    0.008909   -0.002408     0.6823    0.6698    0.1668   -0.0000
    0.6394     0.2025     0.781   -0.018116    0.007387    0.000247    0.006265   -0.001731     0.6826    0.6749    0.1544    0.0000


Main Wing Cp Coefficients
 Panel     CtrlPt.x        CtrlPt.y        CtrlPt.z       Nx      Ny       Nz        Area       Cp
Main WingCp Coefficients
Strip 1
   0       2.393e-01      -6.394e-01       2.536e-09           0.000          -0.000           1.000       3.447e-06         -0.0013
   1       2.349e-01      -6.394e-01       4.565e-09          -0.000          -0.000           1.000       1.014e-05         -0.0020
   2       2.249e-01      -6.394e-01      -3.147e-09           0.000           0.000           1.000       1.624e-05         -0.0028
   3       2.100e-01      -6.394e-01       1.841e-08          -0.000          -0.000           1.000       2.140e-05         -0.0036
   4       1.909e-01      -6.394e-01       3.072e-08           0.000           0.000           1.000       2.532e-05         -0.0047
   5       1.687e-01      -6.394e-01       2.907e-07           0.000           0.000           1.000       2.776e-05         -0.0058
   6       1.449e-01      -6.394e-01       8.378e-07           0.000          -0.000           1.000       2.860e-05         -0.0071
   7       1.206e-01      -6.394e-01      -1.127e-08          -0.000          -0.000           1.000       2.776e-05         -0.0090
   8       9.745e-02      -6.394e-01      -1.467e-06           0.000           0.001           1.000       2.532e-05         -0.0108
   9       7.667e-02      -6.394e-01       1.891e-06          -0.000          -0.001           1.000       2.140e-05         -0.0153
  10       5.951e-02      -6.394e-01      -2.255e-07          -0.000          -0.000           1.000       1.624e-05         -0.0280
  11       4.694e-02      -6.394e-01      -6.862e-07           0.000           0.000           1.000       1.014e-05         -0.0876
  12       3.972e-02      -6.394e-01      -4.085e-07           0.000           0.001           1.000       3.447e-06         -0.4278
Strip 2
  13       2.392e-01      -6.374e-01       2.643e-09           0.000          -0.000           1.000       8.671e-06         -0.0020
  14       2.347e-01      -6.374e-01       4.756e-09          -0.000          -0.000           1.000       2.551e-05         -0.0032
  15       2.243e-01      -6.374e-01      -3.279e-09           0.000           0.000           1.000       4.086e-05         -0.0045
  16       2.087e-01      -6.374e-01       1.918e-08          -0.000          -0.000           1.000       5.384e-05         -0.0060
  17       1.888e-01      -6.374e-01       3.201e-08           0.000           0.000           1.000       6.369e-05         -0.0077
  18       1.657e-01      -6.374e-01       3.030e-07           0.000           0.000           1.000       6.984e-05         -0.0096
  19       1.409e-01      -6.374e-01       8.730e-07           0.000          -0.000           1.000       7.193e-05         -0.0118
  20       1.156e-01      -6.374e-01      -1.175e-08          -0.000          -0.000           1.000       6.984e-05         -0.0154
  21       9.147e-02      -6.374e-01      -1.529e-06           0.000           0.001           1.000       6.369e-05         -0.0190
  22       6.982e-02      -6.374e-01       1.971e-06          -0.000          -0.001           1.000       5.384e-05         -0.0285
  23       5.193e-02      -6.374e-01      -2.349e-07          -0.000          -0.000           1.000       4.086e-05         -0.0656
  24       3.884e-02      -6.374e-01      -7.150e-07           0.000           0.000           1.000       2.551e-05         -0.1757
  25       3.131e-02      -6.374e-01      -4.256e-07           0.000           0.001           1.000       8.671e-06         -0.4244
Strip 3
  26       2.392e-01      -6.354e-01       2.731e-09           0.000          -0.000           1.000       3.711e-06         -0.0024
  27       2.345e-01      -6.354e-01       4.915e-09          -0.000          -0.000           1.000       1.092e-05         -0.0040
  28       2.238e-01      -6.354e-01      -3.388e-09           0.000           0.000           1.000       1.749e-05         -0.0056
  29       2.077e-01      -6.354e-01       1.982e-08          -0.000          -0.000           1.000       2.305e-05         -0.0075
  30       1.871e-01      -6.354e-01       3.308e-08           0.000           0.000           1.000       2.726e-05         -0.0096
  31       1.633e-01      -6.354e-01       3.131e-07           0.000           0.000           1.000       2.989e-05         -0.0121
  32       1.376e-01      -6.354e-01       9.021e-07           0.000          -0.000           1.000       3.079e-05         -0.0152
  33       1.115e-01      -6.354e-01      -1.214e-08          -0.000          -0.000           1.000       2.989e-05         -0.0201
  34       8.651e-02      -6.354e-01      -1.580e-06           0.000           0.000           1.000       2.726e-05         -0.0258
  35       6.414e-02      -6.354e-01       2.036e-06          -0.000          -0.000           1.000       2.305e-05         -0.0416
  36       4.566e-02      -6.354e-01      -2.427e-07          -0.000          -0.000           1.000       1.749e-05         -0.0896
  37       3.213e-02      -6.354e-01      -7.388e-07           0.000           0.000           1.000       1.092e-05         -0.1759
  38       2.435e-02      -6.354e-01      -4.398e-07           0.000           0.000           1.000       3.711e-06         -0.4900
Strip 4
  39       2.392e-01      -6.334e-01       2.775e-09           0.000          -0.000           1.000       9.103e-06         -0.0028
  40       2.344e-01      -6.334e-01       4.994e-09          -0.000          -0.000           1.000       2.678e-05         -0.0047
  41       2.235e-01      -6.334e-01      -3.443e-09           0.000           0.000           1.000       4.290e-05         -0.0066
  42       2.071e-01      -6.334e-01       2.014e-08          -0.000          -0.000           1.000       5.653e-05         -0.0089
  43       1.862e-01      -6.334e-01       3.361e-08           0.000           0.000           1.000       6.687e-05         -0.0115
  44       1.620e-01      -6.334e-01       3.181e-07           0.000           0.000           1.000       7.333e-05         -0.0145
  45       1.359e-01      -6.334e-01       9.166e-07           0.000          -0.000           1.000       7.552e-05         -0.0183
  46       1.094e-01      -6.334e-01      -1.233e-08          -0.000          -0.000           1.000       7.333e-05         -0.0244
  47       8.405e-02      -6.334e-01      -1.605e-06           0.000           0.000           1.000       6.687e-05         -0.0318
  48       6.132e-02      -6.334e-01       2.069e-06          -0.000          -0.000           1.000       5.653e-05         -0.0518
  49       4.254e-02      -6.334e-01      -2.466e-07          -0.000          -0.000           1.000       4.290e-05         -0.1007
  50       2.879e-02      -6.334e-01      -7.507e-07           0.000           0.000           1.000       2.678e-05         -0.2012
  51       2.089e-02      -6.334e-01      -4.469e-07           0.000           0.000           1.000       9.103e-06         -0.5410
Strip 5
  52       2.392e-01      -6.314e-01       2.815e-09           0.000          -0.000           1.000       3.825e-06         -0.0031
  53       2.343e-01      -6.314e-01       5.066e-09          -0.000          -0.000           1.000       1.125e-05         -0.0052
  54       2.233e-01      -6.314e-01      -3.492e-09           0.000           0.000           1.000       1.803e-05         -0.0075
  55       2.067e-01      -6.314e-01       2.043e-08          -0.000          -0.000           1.000       2.375e-05         -0.0100
  56       1.855e-01      -6.314e-01       3.410e-08           0.000           0.000           1.000       2.810e-05         -0.0130
  57       1.609e-01      -6.314e-01       3.227e-07           0.000           0.000           1.000       3.081e-05         -0.0165
  58       1.344e-01      -6.314e-01       9.299e-07           0.000          -0.000           1.000       3.174e-05         -0.0209
  59       1.075e-01      -6.314e-01      -1.251e-08          -0.000          -0.000           1.000       3.081e-05         -0.0280
  60       8.179e-02      -6.314e-01      -1.629e-06           0.000           0.000           1.000       2.810e-05         -0.0370
  61       5.873e-02      -6.314e-01       2.099e-06          -0.000          -0.000           1.000       2.375e-05         -0.0605
  62       3.968e-02      -6.314e-01      -2.502e-07          -0.000          -0.000           1.000       1.803e-05         -0.1119
  63       2.574e-02      -6.314e-01      -7.615e-07           0.000           0.000           1.000       1.125e-05         -0.2179
  64       1.772e-02      -6.314e-01      -4.534e-07           0.000           0.000           1.000       3.825e-06         -0.5639
Strip 6
  65       2.392e-01      -6.294e-01       2.846e-09           0.000          -0.000           1.000       9.338e-06         -0.0034
  66       2.343e-01      -6.294e-01       5.122e-09          -0.000          -0.000           1.000       2.747e-05         -0.0057
  67       2.231e-01      -6.294e-01      -3.531e-09           0.000           0.000           1.000       4.401e-05         -0.0083
  68       2.063e-01      -6.294e-01       2.065e-08          -0.000          -0.000           1.000       5.799e-05         -0.0111
  69       1.849e-01      -6.294e-01       3.448e-08           0.000           0.000           1.000       6.860e-05         -0.0144
  70       1.600e-01      -6.294e-01       3.263e-07           0.000           0.000           1.000       7.522e-05         -0.0184
  71       1.332e-01      -6.294e-01       9.402e-07           0.000          -0.000           1.000       7.747e-05         -0.0234
  72       1.060e-01      -6.294e-01      -1.265e-08          -0.000          -0.000           1.000       7.522e-05         -0.0315
  73       8.003e-02      -6.294e-01      -1.647e-06           0.000           0.000           1.000       6.860e-05         -0.0420
  74       5.672e-02      -6.294e-01       2.122e-06          -0.000          -0.000           1.000       5.799e-05         -0.0684
  75       3.745e-02      -6.294e-01      -2.530e-07          -0.000          -0.000           1.000       4.401e-05         -0.1216
  76       2.335e-02      -6.294e-01      -7.700e-07           0.000           0.000           1.000       2.747e-05         -0.2333
  77       1.524e-02      -6.294e-01      -4.584e-07           0.000           0.000           1.000       9.338e-06         -0.5873
Strip 7
  78       2.392e-01      -6.277e-01       2.871e-09           0.000          -0.000           1.000       1.785e-06         -0.0036
  79       2.342e-01      -6.277e-01       5.167e-09          -0.000          -0.000           1.000       5.250e-06         -0.0061
  80       2.229e-01      -6.277e-01      -3.562e-09           0.000           0.000           1.000       8.410e-06         -0.0088
  81       2.060e-01      -6.277e-01       2.083e-08          -0.000          -0.000           1.000       1.108e-05         -0.0118
  82       1.844e-01      -6.277e-01       3.477e-08           0.000           0.000           1.000       1.311e-05         -0.0154
  83       1.593e-01      -6.277e-01       3.291e-07           0.000           0.000           1.000       1.438e-05         -0.0196
  84       1.323e-01      -6.277e-01       9.483e-07           0.000          -0.000           1.000       1.481e-05         -0.0250
  85       1.049e-01      -6.277e-01      -1.276e-08          -0.000          -0.000           1.000       1.438e-05         -0.0338
  86       7.865e-02      -6.277e-01      -1.661e-06           0.000           0.000           1.000       1.311e-05         -0.0453
  87       5.513e-02      -6.277e-01       2.141e-06          -0.000          -0.000           1.000       1.108e-05         -0.0731
  88       3.570e-02      -6.277e-01      -2.552e-07          -0.000          -0.000           1.000       8.410e-06         -0.1275
  89       2.148e-02      -6.277e-01      -7.767e-07           0.000           0.000           1.000       5.250e-06         -0.2407
  90       1.330e-02      -6.277e-01      -4.624e-07           0.000           0.000           1.000       1.785e-06         -0.6053
Strip 8
  91       2.392e-01      -6.267e-01       2.880e-09           0.000          -0.000           1.000       4.892e-06         -0.0037
  92       2.342e-01      -6.267e-01       5.184e-09          -0.000          -0.000           1.000       1.439e-05         -0.0064
  93       2.229e-01      -6.267e-01      -3.574e-09           0.000           0.000           1.000       2.305e-05         -0.0092
  94       2.059e-01      -6.267e-01       2.090e-08          -0.000          -0.000           1.000       3.038e-05         -0.0125
  95       1.842e-01      -6.267e-01       3.489e-08           0.000           0.000           1.000       3.593e-05         -0.0162
  96       1.591e-01      -6.267e-01       3.302e-07           0.000           0.000           1.000       3.940e-05         -0.0207
  97       1.320e-01      -6.267e-01       9.514e-07           0.000          -0.000           1.000       4.058e-05         -0.0265
  98       1.044e-01      -6.267e-01      -1.280e-08          -0.000          -0.000           1.000       3.940e-05         -0.0358
  99       7.812e-02      -6.267e-01      -1.666e-06           0.000           0.000           1.000       3.593e-05         -0.0483
 100       5.452e-02      -6.267e-01       2.148e-06          -0.000          -0.000           1.000       3.038e-05         -0.0773
 101       3.503e-02      -6.267e-01      -2.560e-07          -0.000          -0.000           1.000       2.305e-05         -0.1324
 102       2.076e-02      -6.267e-01      -7.792e-07           0.000           0.000           1.000       1.439e-05         -0.2445
 103       1.255e-02      -6.267e-01      -4.639e-07           0.000           0.000           1.000       4.892e-06         -0.6363
Strip 9
 104       2.392e-01      -6.250e-01       2.896e-09           0.000          -0.000           1.000       6.720e-06         -0.0039
 105       2.342e-01      -6.250e-01       5.213e-09          -0.000          -0.000           1.000       1.977e-05         -0.0068
 106       2.228e-01      -6.250e-01      -3.594e-09           0.000           0.000           1.000       3.167e-05         -0.0098
 107       2.057e-01      -6.250e-01       2.102e-08          -0.000          -0.000           1.000       4.173e-05         -0.0133
 108       1.839e-01      -6.250e-01       3.509e-08           0.000           0.000           1.000       4.936e-05         -0.0173
 109       1.586e-01      -6.250e-01       3.320e-07           0.000           0.000           1.000       5.413e-05         -0.0222
 110       1.313e-01      -6.250e-01       9.568e-07           0.000          -0.000           1.000       5.575e-05         -0.0284
 111       1.037e-01      -6.250e-01      -1.288e-08          -0.000          -0.000           1.000       5.413e-05         -0.0385
 112       7.720e-02      -6.250e-01      -1.676e-06           0.000           0.000           1.000       4.936e-05         -0.0520
 113       5.348e-02      -6.250e-01       2.160e-06          -0.000          -0.000           1.000       4.173e-05         -0.0825
 114       3.387e-02      -6.250e-01      -2.575e-07          -0.000          -0.000           1.000       3.167e-05         -0.1383
 115       1.952e-02      -6.250e-01      -7.836e-07           0.000           0.000           1.000       1.977e-05         -0.2529
 116       1.127e-02      -6.250e-01      -4.665e-07           0.000           0.000           1.000       6.720e-06         -0.6631
Strip 10
 117       2.392e-01      -6.239e-01       2.906e-09           0.000          -0.000           1.000       4.595e-07         -0.0040
 118       2.341e-01      -6.239e-01       5.231e-09          -0.000          -0.000           1.000       1.352e-06         -0.0069
 119       2.227e-01      -6.239e-01      -3.606e-09           0.000           0.000           1.000       2.166e-06         -0.0101
 120       2.056e-01      -6.239e-01       2.109e-08          -0.000          -0.000           1.000       2.854e-06         -0.0136
 121       1.837e-01      -6.239e-01       3.521e-08           0.000           0.000           1.000       3.376e-06         -0.0177
 122       1.583e-01      -6.239e-01       3.332e-07           0.000           0.000           1.000       3.702e-06         -0.0227
 123       1.310e-01      -6.239e-01       9.601e-07           0.000          -0.000           1.000       3.812e-06         -0.0291
 124       1.032e-01      -6.239e-01      -1.292e-08          -0.000          -0.000           1.000       3.702e-06         -0.0394
 125       7.664e-02      -6.239e-01      -1.682e-06           0.000           0.000           1.000       3.376e-06         -0.0534
 126       5.283e-02      -6.239e-01       2.167e-06          -0.000          -0.000           1.000       2.854e-06         -0.0844
 127       3.316e-02      -6.239e-01      -2.584e-07          -0.000          -0.000           1.000       2.166e-06         -0.1407
 128       1.876e-02      -6.239e-01      -7.863e-07           0.000           0.000           1.000       1.352e-06         -0.2569
 129       1.048e-02      -6.239e-01      -4.681e-07           0.000           0.000           1.000       4.595e-07         -0.6664
Strip 11
 130       2.392e-01      -6.237e-01       2.909e-09           0.000           0.000           1.000       1.348e-06         -0.0040
 131       2.341e-01      -6.237e-01       5.236e-09          -0.000          -0.000           1.000       3.967e-06         -0.0070
 132       2.227e-01      -6.237e-01      -3.609e-09           0.000           0.000           1.000       6.355e-06         -0.0102
 133       2.056e-01      -6.237e-01       2.111e-08          -0.000          -0.000           1.000       8.373e-06         -0.0139
 134       1.836e-01      -6.237e-01       3.524e-08           0.000           0.000           1.000       9.905e-06         -0.0181
 135       1.583e-01      -6.237e-01       3.335e-07           0.000           0.000           1.000       1.086e-05         -0.0232
 136       1.309e-01      -6.237e-01       9.610e-07           0.000          -0.000           1.000       1.119e-05         -0.0298
 137       1.031e-01      -6.237e-01      -1.293e-08          -0.000          -0.000           1.000       1.086e-05         -0.0403
 138       7.650e-02      -6.237e-01      -1.683e-06           0.000           0.000           1.000       9.905e-06         -0.0546
 139       5.267e-02      -6.237e-01       2.169e-06          -0.000          -0.000           1.000       8.373e-06         -0.0860
 140       3.298e-02      -6.237e-01      -2.586e-07          -0.000          -0.000           1.000       6.355e-06         -0.1428
 141       1.857e-02      -6.237e-01      -7.870e-07           0.000           0.000           1.000       3.967e-06         -0.2604
 142       1.028e-02      -6.237e-01      -4.685e-07           0.000           0.000           1.000       1.348e-06         -0.6700
Strip 12
 143       2.392e-01      -6.231e-01       2.914e-09           0.000          -0.000           1.000       2.149e-06         -0.0041
 144       2.341e-01      -6.231e-01       5.244e-09          -0.000          -0.000           1.000       6.321e-06         -0.0072
 145       2.227e-01      -6.231e-01      -3.615e-09           0.000           0.000           1.000       1.013e-05         -0.0105
 146       2.055e-01      -6.231e-01       2.115e-08          -0.000          -0.000           1.000       1.334e-05         -0.0142
 147       1.835e-01      -6.231e-01       3.530e-08           0.000           0.000           1.000       1.578e-05         -0.0185
 148       1.581e-01      -6.231e-01       3.340e-07           0.000           0.000           1.000       1.731e-05         -0.0237
 149       1.307e-01      -6.231e-01       9.626e-07           0.000          -0.000           1.000       1.783e-05         -0.0305
 150       1.029e-01      -6.231e-01      -1.295e-08          -0.000          -0.000           1.000       1.731e-05         -0.0413
 151       7.622e-02      -6.231e-01      -1.686e-06           0.000           0.000           1.000       1.578e-05         -0.0561
 152       5.236e-02      -6.231e-01       2.173e-06          -0.000          -0.000           1.000       1.334e-05         -0.0881
 153       3.263e-02      -6.231e-01      -2.590e-07          -0.000          -0.000           1.000       1.013e-05         -0.1455
 154       1.820e-02      -6.231e-01      -7.883e-07           0.000           0.000           1.000       6.321e-06         -0.2649
 155       9.895e-03      -6.231e-01      -4.693e-07           0.000           0.000           1.000       2.149e-06         -0.6732
Strip 13
 156       2.392e-01      -6.224e-01       2.921e-09           0.000          -0.000           1.000       2.807e-06         -0.0042
 157       2.341e-01      -6.224e-01       5.257e-09          -0.000          -0.000           1.000       8.257e-06         -0.0073
 158       2.227e-01      -6.224e-01      -3.624e-09           0.000           0.000           1.000       1.323e-05         -0.0107
 159       2.054e-01      -6.224e-01       2.120e-08          -0.000          -0.000           1.000       1.743e-05         -0.0146
 160       1.834e-01      -6.224e-01       3.538e-08           0.000           0.000           1.000       2.062e-05         -0.0190
 161       1.579e-01      -6.224e-01       3.348e-07           0.000           0.000           1.000       2.261e-05         -0.0244
 162       1.304e-01      -6.224e-01       9.648e-07           0.000          -0.000           1.000       2.329e-05         -0.0314
 163       1.025e-01      -6.224e-01      -1.298e-08          -0.000          -0.000           1.000       2.261e-05         -0.0426
 164       7.584e-02      -6.224e-01      -1.690e-06           0.000           0.000           1.000       2.062e-05         -0.0578
 165       5.191e-02      -6.224e-01       2.178e-06          -0.000          -0.000           1.000       1.743e-05         -0.0905
 166       3.214e-02      -6.224e-01      -2.596e-07          -0.000          -0.000           1.000       1.323e-05         -0.1488
 167       1.767e-02      -6.224e-01      -7.902e-07           0.000           0.000           1.000       8.257e-06         -0.2702
 168       9.352e-03      -6.224e-01      -4.704e-07           0.000           0.000           1.000       2.807e-06         -0.6750
Strip 14
 169       2.392e-01      -6.215e-01       2.929e-09           0.000          -0.000           1.000       3.278e-06         -0.0043
 170       2.341e-01      -6.215e-01       5.272e-09          -0.000          -0.000           1.000       9.643e-06         -0.0075
 171       2.226e-01      -6.215e-01      -3.634e-09           0.000           0.000           1.000       1.545e-05         -0.0110
 172       2.053e-01      -6.215e-01       2.126e-08          -0.000          -0.000           1.000       2.036e-05         -0.0150
 173       1.833e-01      -6.215e-01       3.548e-08           0.000           0.000           1.000       2.408e-05         -0.0196
 174       1.577e-01      -6.215e-01       3.358e-07           0.000           0.000           1.000       2.640e-05         -0.0251
 175       1.301e-01      -6.215e-01       9.676e-07           0.000          -0.000           1.000       2.719e-05         -0.0324
 176       1.021e-01      -6.215e-01      -1.302e-08          -0.000          -0.000           1.000       2.640e-05         -0.0440
 177       7.536e-02      -6.215e-01      -1.695e-06           0.000           0.000           1.000       2.408e-05         -0.0598
 178       5.137e-02      -6.215e-01       2.184e-06          -0.000          -0.000           1.000       2.036e-05         -0.0932
 179       3.154e-02      -6.215e-01      -2.604e-07          -0.000          -0.000           1.000       1.545e-05         -0.1525
 180       1.703e-02      -6.215e-01      -7.925e-07           0.000           0.000           1.000       9.643e-06         -0.2762
 181       8.687e-03      -6.215e-01      -4.718e-07           0.000           0.000           1.000       3.278e-06         -0.6749
Strip 15
 182       2.391e-01      -6.205e-01       2.938e-09           0.000          -0.000           1.000       3.529e-06         -0.0044
 183       2.341e-01      -6.205e-01       5.289e-09          -0.000          -0.000           1.000       1.038e-05         -0.0077
 184       2.225e-01      -6.205e-01      -3.646e-09           0.000           0.000           1.000       1.663e-05         -0.0113
 185       2.052e-01      -6.205e-01       2.132e-08          -0.000          -0.000           1.000       2.191e-05         -0.0154
 186       1.831e-01      -6.205e-01       3.560e-08           0.000           0.000           1.000       2.592e-05         -0.0202
 187       1.574e-01      -6.205e-01       3.369e-07           0.000           0.000           1.000       2.843e-05         -0.0259
 188       1.298e-01      -6.205e-01       9.707e-07           0.000          -0.000           1.000       2.928e-05         -0.0334
 189       1.017e-01      -6.205e-01      -1.306e-08          -0.000          -0.000           1.000       2.843e-05         -0.0453
 190       7.484e-02      -6.205e-01      -1.700e-06           0.000           0.000           1.000       2.592e-05         -0.0617
 191       5.076e-02      -6.205e-01       2.191e-06          -0.000          -0.000           1.000       2.191e-05         -0.0959
 192       3.087e-02      -6.205e-01      -2.612e-07          -0.000          -0.000           1.000       1.663e-05         -0.1562
 193       1.632e-02      -6.205e-01      -7.950e-07           0.000           0.000           1.000       1.038e-05         -0.2822
 194       7.945e-03      -6.205e-01      -4.733e-07           0.000           0.000           1.000       3.529e-06         -0.6736
Strip 16
 195       2.391e-01      -6.200e-01       2.943e-09           0.000          -0.000           1.000       1.168e-07         -0.0044
 196       2.341e-01      -6.200e-01       5.298e-09          -0.000          -0.000           1.000       3.437e-07         -0.0077
 197       2.225e-01      -6.200e-01      -3.652e-09           0.000           0.000           1.000       5.507e-07         -0.0114
 198       2.051e-01      -6.200e-01       2.136e-08          -0.000          -0.000           1.000       7.256e-07         -0.0155
 199       1.830e-01      -6.200e-01       3.566e-08           0.000           0.000           1.000       8.583e-07         -0.0203
 200       1.573e-01      -6.200e-01       3.374e-07           0.000           0.000           1.000       9.412e-07         -0.0261
 201       1.296e-01      -6.200e-01       9.724e-07           0.000          -0.000           1.000       9.694e-07         -0.0337
 202       1.015e-01      -6.200e-01      -1.309e-08          -0.000          -0.000           1.000       9.412e-07         -0.0457
 203       7.456e-02      -6.200e-01      -1.703e-06           0.000           0.000           1.000       8.583e-07         -0.0622
 204       5.044e-02      -6.200e-01       2.195e-06          -0.000          -0.000           1.000       7.256e-07         -0.0965
 205       3.052e-02      -6.200e-01      -2.617e-07          -0.000          -0.000           1.000       5.507e-07         -0.1571
 206       1.594e-02      -6.200e-01      -7.963e-07           0.000           0.000           1.000       3.437e-07         -0.2831
 207       7.552e-03      -6.200e-01      -4.741e-07           0.000           0.000           1.000       1.168e-07         -0.6744
Strip 17
 208       2.391e-01      -6.199e-01       2.944e-09           0.000           0.000           1.000       3.486e-07         -0.0045
 209       2.341e-01      -6.199e-01       5.299e-09          -0.000          -0.000           1.000       1.025e-06         -0.0078
 210       2.225e-01      -6.199e-01      -3.653e-09           0.000           0.000           1.000       1.643e-06         -0.0115
 211       2.051e-01      -6.199e-01       2.136e-08          -0.000          -0.000           1.000       2.165e-06         -0.0156
 212       1.830e-01      -6.199e-01       3.566e-08           0.000           0.000           1.000       2.561e-06         -0.0204
 213       1.573e-01      -6.199e-01       3.375e-07           0.000           0.000           1.000       2.808e-06         -0.0262
 214       1.296e-01      -6.199e-01       9.725e-07           0.000          -0.000           1.000       2.892e-06         -0.0339
 215       1.014e-01      -6.199e-01      -1.309e-08          -0.000          -0.000           1.000       2.808e-06         -0.0460
 216       7.453e-02      -6.199e-01      -1.703e-06           0.000           0.000           1.000       2.561e-06         -0.0626
 217       5.042e-02      -6.199e-01       2.195e-06          -0.000          -0.000           1.000       2.165e-06         -0.0971
 218       3.049e-02      -6.199e-01      -2.617e-07          -0.000          -0.000           1.000       1.643e-06         -0.1579
 219       1.591e-02      -6.199e-01      -7.965e-07           0.000           0.000           1.000       1.025e-06         -0.2841
 220       7.519e-03      -6.199e-01      -4.742e-07           0.000           0.000           1.000       3.486e-07         -0.6760
Strip 18
 221       2.391e-01      -6.198e-01       2.945e-09           0.000          -0.000           1.000       5.745e-07         -0.0045
 222       2.341e-01      -6.198e-01       5.300e-09          -0.000          -0.000           1.000       1.690e-06         -0.0078
 223       2.225e-01      -6.198e-01      -3.654e-09           0.000           0.000           1.000       2.708e-06         -0.0116
 224       2.051e-01      -6.198e-01       2.137e-08          -0.000          -0.000           1.000       3.568e-06         -0.0157
 225       1.830e-01      -6.198e-01       3.567e-08           0.000           0.000           1.000       4.220e-06         -0.0206
 226       1.573e-01      -6.198e-01       3.376e-07           0.000           0.000           1.000       4.628e-06         -0.0264
 227       1.295e-01      -6.198e-01       9.728e-07           0.000          -0.000           1.000       4.766e-06         -0.0341
 228       1.014e-01      -6.198e-01      -1.309e-08          -0.000          -0.000           1.000       4.628e-06         -0.0464
 229       7.449e-02      -6.198e-01      -1.704e-06           0.000           0.000           1.000       4.220e-06         -0.0632
 230       5.036e-02      -6.198e-01       2.196e-06          -0.000          -0.000           1.000       3.568e-06         -0.0978
 231       3.043e-02      -6.198e-01      -2.618e-07          -0.000          -0.000           1.000       2.708e-06         -0.1588
 232       1.584e-02      -6.198e-01      -7.967e-07           0.000           0.000           1.000       1.690e-06         -0.2851
 233       7.452e-03      -6.198e-01      -4.743e-07           0.000           0.000           1.000       5.745e-07         -0.6782
Strip 19
 234       2.391e-01      -6.196e-01       2.946e-09           0.000          -0.000           1.000       7.908e-07         -0.0045
 235       2.341e-01      -6.196e-01       5.302e-09          -0.000          -0.000           1.000       2.327e-06         -0.0079
 236       2.225e-01      -6.196e-01      -3.655e-09           0.000           0.000           1.000       3.727e-06         -0.0117
 237       2.051e-01      -6.196e-01       2.138e-08          -0.000          -0.000           1.000       4.911e-06         -0.0159
 238       1.829e-01      -6.196e-01       3.569e-08           0.000           0.000           1.000       5.809e-06         -0.0208
 239       1.572e-01      -6.196e-01       3.377e-07           0.000           0.000           1.000       6.370e-06         -0.0267
 240       1.295e-01      -6.196e-01       9.732e-07           0.000          -0.000           1.000       6.561e-06         -0.0344
 241       1.013e-01      -6.196e-01      -1.310e-08          -0.000          -0.000           1.000       6.370e-06         -0.0468
 242       7.442e-02      -6.196e-01      -1.704e-06           0.000           0.000           1.000       5.809e-06         -0.0637
 243       5.028e-02      -6.196e-01       2.197e-06          -0.000          -0.000           1.000       4.911e-06         -0.0985
 244       3.034e-02      -6.196e-01      -2.619e-07          -0.000          -0.000           1.000       3.727e-06         -0.1598
 245       1.575e-02      -6.196e-01      -7.970e-07           0.000           0.000           1.000       2.327e-06         -0.2861
 246       7.353e-03      -6.196e-01      -4.745e-07           0.000           0.000           1.000       7.908e-07         -0.6814
Strip 20
 247       2.391e-01      -6.193e-01       2.948e-09           0.000          -0.000           1.000       9.939e-07         -0.0046
 248       2.341e-01      -6.193e-01       5.305e-09          -0.000          -0.000           1.000       2.924e-06         -0.0080
 249       2.225e-01      -6.193e-01      -3.657e-09           0.000           0.000           1.000       4.684e-06         -0.0118
 250       2.051e-01      -6.193e-01       2.139e-08          -0.000          -0.000           1.000       6.172e-06         -0.0160
 251       1.829e-01      -6.193e-01       3.571e-08           0.000           0.000           1.000       7.301e-06         -0.0210
 252       1.572e-01      -6.193e-01       3.379e-07           0.000           0.000           1.000       8.006e-06         -0.0269
 253       1.294e-01      -6.193e-01       9.737e-07           0.000          -0.000           1.000       8.246e-06         -0.0348
 254       1.013e-01      -6.193e-01      -1.310e-08          -0.000          -0.000           1.000       8.006e-06         -0.0473
 255       7.432e-02      -6.193e-01      -1.705e-06           0.000           0.000           1.000       7.301e-06         -0.0644
 256       5.018e-02      -6.193e-01       2.198e-06          -0.000          -0.000           1.000       6.172e-06         -0.0994
 257       3.022e-02      -6.193e-01      -2.620e-07          -0.000          -0.000           1.000       4.684e-06         -0.1609
 258       1.562e-02      -6.193e-01      -7.975e-07           0.000           0.000           1.000       2.924e-06         -0.2871
 259       7.224e-03      -6.193e-01      -4.748e-07           0.000           0.000           1.000       9.939e-07         -0.6854
Strip 21
 260       2.391e-01      -6.190e-01       2.950e-09           0.000          -0.000           1.000       1.180e-06         -0.0046
 261       2.341e-01      -6.190e-01       5.309e-09          -0.000          -0.000           1.000       3.473e-06         -0.0080
 262       2.225e-01      -6.190e-01      -3.660e-09           0.000           0.000           1.000       5.563e-06         -0.0119
 263       2.051e-01      -6.190e-01       2.141e-08          -0.000          -0.000           1.000       7.330e-06         -0.0162
 264       1.829e-01      -6.190e-01       3.573e-08           0.000           0.000           1.000       8.671e-06         -0.0212
 265       1.571e-01      -6.190e-01       3.381e-07           0.000           0.000           1.000       9.508e-06         -0.0272
 266       1.293e-01      -6.190e-01       9.744e-07           0.000          -0.000           1.000       9.793e-06         -0.0352
 267       1.012e-01      -6.190e-01      -1.311e-08          -0.000          -0.000           1.000       9.508e-06         -0.0478
 268       7.421e-02      -6.190e-01      -1.707e-06           0.000           0.000           1.000       8.671e-06         -0.0651
 269       5.005e-02      -6.190e-01       2.199e-06          -0.000          -0.000           1.000       7.330e-06         -0.1004
 270       3.008e-02      -6.190e-01      -2.622e-07          -0.000          -0.000           1.000       5.563e-06         -0.1622
 271       1.547e-02      -6.190e-01      -7.980e-07           0.000           0.000           1.000       3.473e-06         -0.2883
 272       7.067e-03      -6.190e-01      -4.751e-07           0.000           0.000           1.000       1.180e-06         -0.6900
Strip 22
 273       2.391e-01      -6.186e-01       2.952e-09           0.000          -0.000           1.000       1.347e-06         -0.0046
 274       2.341e-01      -6.186e-01       5.313e-09          -0.000          -0.000           1.000       3.963e-06         -0.0081
 275       2.225e-01      -6.186e-01      -3.663e-09           0.000           0.000           1.000       6.348e-06         -0.0120
 276       2.050e-01      -6.186e-01       2.142e-08          -0.000          -0.000           1.000       8.365e-06         -0.0163
 277       1.828e-01      -6.186e-01       3.576e-08           0.000           0.000           1.000       9.895e-06         -0.0214
 278       1.570e-01      -6.186e-01       3.384e-07           0.000           0.000           1.000       1.085e-05         -0.0275
 279       1.293e-01      -6.186e-01       9.752e-07           0.000          -0.000           1.000       1.118e-05         -0.0356
 280       1.011e-01      -6.186e-01      -1.312e-08          -0.000          -0.000           1.000       1.085e-05         -0.0484
 281       7.408e-02      -6.186e-01      -1.708e-06           0.000           0.000           1.000       9.895e-06         -0.0659
 282       4.990e-02      -6.186e-01       2.201e-06          -0.000          -0.000           1.000       8.365e-06         -0.1015
 283       2.992e-02      -6.186e-01      -2.624e-07          -0.000          -0.000           1.000       6.348e-06         -0.1636
 284       1.530e-02      -6.186e-01      -7.986e-07           0.000           0.000           1.000       3.963e-06         -0.2897
 285       6.884e-03      -6.186e-01      -4.755e-07           0.000           0.000           1.000       1.347e-06         -0.6947
Strip 23
 286       2.391e-01      -6.182e-01       2.954e-09           0.000          -0.000           1.000       1.491e-06         -0.0047
 287       2.341e-01      -6.182e-01       5.318e-09          -0.000          -0.000           1.000       4.386e-06         -0.0082
 288       2.225e-01      -6.182e-01      -3.666e-09           0.000           0.000           1.000       7.027e-06         -0.0121
 289       2.050e-01      -6.182e-01       2.144e-08          -0.000          -0.000           1.000       9.259e-06         -0.0165
 290       1.828e-01      -6.182e-01       3.579e-08           0.000           0.000           1.000       1.095e-05         -0.0217
 291       1.570e-01      -6.182e-01       3.387e-07           0.000           0.000           1.000       1.201e-05         -0.0279
 292       1.292e-01      -6.182e-01       9.760e-07           0.000          -0.000           1.000       1.237e-05         -0.0361
 293       1.009e-01      -6.182e-01      -1.313e-08          -0.000          -0.000           1.000       1.201e-05         -0.0490
 294       7.394e-02      -6.182e-01      -1.709e-06           0.000           0.000           1.000       1.095e-05         -0.0668
 295       4.973e-02      -6.182e-01       2.203e-06          -0.000          -0.000           1.000       9.259e-06         -0.1027
 296       2.973e-02      -6.182e-01      -2.626e-07          -0.000          -0.000           1.000       7.027e-06         -0.1651
 297       1.510e-02      -6.182e-01      -7.993e-07           0.000           0.000           1.000       4.386e-06         -0.2915
 298       6.679e-03      -6.182e-01      -4.759e-07           0.000           0.000           1.000       1.491e-06         -0.6992
Strip 24
 299       2.391e-01      -6.178e-01       2.957e-09           0.000          -0.000           1.000       1.610e-06         -0.0047
 300       2.340e-01      -6.178e-01       5.323e-09          -0.000          -0.000           1.000       4.736e-06         -0.0083
 301       2.224e-01      -6.178e-01      -3.669e-09           0.000           0.000           1.000       7.587e-06         -0.0123
 302       2.050e-01      -6.178e-01       2.146e-08          -0.000          -0.000           1.000       9.997e-06         -0.0168
 303       1.827e-01      -6.178e-01       3.582e-08           0.000           0.000           1.000       1.183e-05         -0.0220
 304       1.569e-01      -6.178e-01       3.390e-07           0.000           0.000           1.000       1.297e-05         -0.0283
 305       1.291e-01      -6.178e-01       9.770e-07           0.000          -0.000           1.000       1.336e-05         -0.0366
 306       1.008e-01      -6.178e-01      -1.315e-08          -0.000          -0.000           1.000       1.297e-05         -0.0497
 307       7.378e-02      -6.178e-01      -1.711e-06           0.000           0.000           1.000       1.183e-05         -0.0678
 308       4.955e-02      -6.178e-01       2.205e-06          -0.000          -0.000           1.000       9.997e-06         -0.1039
 309       2.953e-02      -6.178e-01      -2.629e-07          -0.000          -0.000           1.000       7.587e-06         -0.1667
 310       1.488e-02      -6.178e-01      -8.001e-07           0.000           0.000           1.000       4.736e-06         -0.2936
 311       6.456e-03      -6.178e-01      -4.763e-07           0.000           0.000           1.000       1.610e-06         -0.7032
Strip 25
 312       2.391e-01      -6.173e-01       2.960e-09           0.000          -0.000           1.000       1.701e-06         -0.0048
 313       2.340e-01      -6.173e-01       5.328e-09          -0.000          -0.000           1.000       5.005e-06         -0.0084
 314       2.224e-01      -6.173e-01      -3.673e-09           0.000           0.000           1.000       8.019e-06         -0.0124
 315       2.049e-01      -6.173e-01       2.148e-08          -0.000          -0.000           1.000       1.057e-05         -0.0170
 316       1.826e-01      -6.173e-01       3.586e-08           0.000           0.000           1.000       1.250e-05         -0.0223
 317       1.568e-01      -6.173e-01       3.394e-07           0.000           0.000           1.000       1.371e-05         -0.0287
 318       1.289e-01      -6.173e-01       9.780e-07           0.000          -0.000           1.000       1.412e-05         -0.0371
 319       1.007e-01      -6.173e-01      -1.316e-08          -0.000          -0.000           1.000       1.371e-05         -0.0504
 320       7.361e-02      -6.173e-01      -1.713e-06           0.000           0.000           1.000       1.250e-05         -0.0687
 321       4.936e-02      -6.173e-01       2.207e-06          -0.000          -0.000           1.000       1.057e-05         -0.1052
 322       2.932e-02      -6.173e-01      -2.632e-07          -0.000          -0.000           1.000       8.019e-06         -0.1683
 323       1.465e-02      -6.173e-01      -8.009e-07           0.000           0.000           1.000       5.005e-06         -0.2961
 324       6.217e-03      -6.173e-01      -4.768e-07           0.000           0.000           1.000       1.701e-06         -0.7067
Strip 26
 325       2.391e-01      -6.168e-01       2.963e-09           0.000          -0.000           1.000       1.764e-06         -0.0048
 326       2.340e-01      -6.168e-01       5.334e-09          -0.000          -0.000           1.000       5.190e-06         -0.0085
 327       2.224e-01      -6.168e-01      -3.677e-09           0.000           0.000           1.000       8.314e-06         -0.0126
 328       2.049e-01      -6.168e-01       2.151e-08          -0.000          -0.000           1.000       1.096e-05         -0.0172
 329       1.826e-01      -6.168e-01       3.590e-08           0.000           0.000           1.000       1.296e-05         -0.0226
 330       1.567e-01      -6.168e-01       3.397e-07           0.000           0.000           1.000       1.421e-05         -0.0291
 331       1.288e-01      -6.168e-01       9.790e-07           0.000          -0.000           1.000       1.464e-05         -0.0376
 332       1.005e-01      -6.168e-01      -1.317e-08          -0.000          -0.000           1.000       1.421e-05         -0.0512
 333       7.343e-02      -6.168e-01      -1.715e-06           0.000           0.000           1.000       1.296e-05         -0.0697
 334       4.915e-02      -6.168e-01       2.210e-06          -0.000          -0.000           1.000       1.096e-05         -0.1065
 335       2.909e-02      -6.168e-01      -2.634e-07          -0.000          -0.000           1.000       8.314e-06         -0.1700
 336       1.441e-02      -6.168e-01      -8.018e-07           0.000           0.000           1.000       5.190e-06         -0.2987
 337       5.968e-03      -6.168e-01      -4.773e-07           0.000           0.000           1.000       1.764e-06         -0.7099
Strip 27
 338       2.391e-01      -6.163e-01       2.967e-09           0.000          -0.000           1.000       1.797e-06         -0.0049
 339       2.340e-01      -6.163e-01       5.340e-09          -0.000          -0.000           1.000       5.286e-06         -0.0086
 340       2.224e-01      -6.163e-01      -3.681e-09           0.000           0.000           1.000       8.468e-06         -0.0128
 341       2.049e-01      -6.163e-01       2.153e-08          -0.000          -0.000           1.000       1.116e-05         -0.0174
 342       1.825e-01      -6.163e-01       3.594e-08           0.000           0.000           1.000       1.320e-05         -0.0229
 343       1.566e-01      -6.163e-01       3.401e-07           0.000           0.000           1.000       1.447e-05         -0.0295
 344       1.287e-01      -6.163e-01       9.801e-07           0.000          -0.000           1.000       1.491e-05         -0.0382
 345       1.004e-01      -6.163e-01      -1.319e-08          -0.000          -0.000           1.000       1.447e-05         -0.0519
 346       7.325e-02      -6.163e-01      -1.717e-06           0.000           0.000           1.000       1.320e-05         -0.0707
 347       4.894e-02      -6.163e-01       2.212e-06          -0.000          -0.000           1.000       1.116e-05         -0.1077
 348       2.886e-02      -6.163e-01      -2.637e-07          -0.000          -0.000           1.000       8.468e-06         -0.1716
 349       1.417e-02      -6.163e-01      -8.026e-07           0.000           0.000           1.000       5.286e-06         -0.3013
 350       5.712e-03      -6.163e-01      -4.778e-07           0.000           0.000           1.000       1.797e-06         -0.7134
Strip 28
 351       2.391e-01      -6.160e-01       2.968e-09           0.000           0.000           1.000       1.178e-07         -0.0049
 352       2.340e-01      -6.160e-01       5.343e-09          -0.000          -0.000           1.000       3.467e-07         -0.0086
 353       2.224e-01      -6.160e-01      -3.683e-09           0.000           0.000           1.000       5.553e-07         -0.0128
 354       2.049e-01      -6.160e-01       2.154e-08          -0.000          -0.000           1.000       7.317e-07         -0.0175
 355       1.825e-01      -6.160e-01       3.596e-08           0.000           0.000           1.000       8.656e-07         -0.0230
 356       1.566e-01      -6.160e-01       3.403e-07           0.000           0.000           1.000       9.492e-07         -0.0296
 357       1.286e-01      -6.160e-01       9.806e-07           0.000          -0.000           1.000       9.776e-07         -0.0383
 358       1.003e-01      -6.160e-01      -1.320e-08          -0.000          -0.000           1.000       9.492e-07         -0.0521
 359       7.315e-02      -6.160e-01      -1.717e-06           0.000           0.000           1.000       8.656e-07         -0.0711
 360       4.884e-02      -6.160e-01       2.213e-06          -0.000          -0.000           1.000       7.317e-07         -0.1082
 361       2.874e-02      -6.160e-01      -2.639e-07          -0.000          -0.000           1.000       5.553e-07         -0.1721
 362       1.404e-02      -6.160e-01      -8.031e-07           0.000           0.000           1.000       3.467e-07         -0.3020
 363       5.578e-03      -6.160e-01      -4.781e-07           0.000           0.000           1.000       1.178e-07         -0.7155
Strip 29
 364       2.391e-01      -6.159e-01       2.969e-09           0.000          -0.000           1.000       3.515e-07         -0.0049
 365       2.340e-01      -6.159e-01       5.343e-09          -0.000          -0.000           1.000       1.034e-06         -0.0087
 366       2.224e-01      -6.159e-01      -3.683e-09           0.000           0.000           1.000       1.657e-06         -0.0129
 367       2.048e-01      -6.159e-01       2.154e-08          -0.000          -0.000           1.000       2.183e-06         -0.0176
 368       1.825e-01      -6.159e-01       3.596e-08           0.000           0.000           1.000       2.582e-06         -0.0231
 369       1.566e-01      -6.159e-01       3.403e-07           0.000           0.000           1.000       2.832e-06         -0.0297
 370       1.286e-01      -6.159e-01       9.807e-07           0.000          -0.000           1.000       2.916e-06         -0.0385
 371       1.003e-01      -6.159e-01      -1.320e-08          -0.000          -0.000           1.000       2.832e-06         -0.0523
 372       7.314e-02      -6.159e-01      -1.718e-06           0.000           0.000           1.000       2.582e-06         -0.0713
 373       4.882e-02      -6.159e-01       2.214e-06          -0.000          -0.000           1.000       2.183e-06         -0.1086
 374       2.873e-02      -6.159e-01      -2.639e-07          -0.000          -0.000           1.000       1.657e-06         -0.1725
 375       1.402e-02      -6.159e-01      -8.032e-07           0.000           0.000           1.000       1.034e-06         -0.3026
 376       5.561e-03      -6.159e-01      -4.781e-07           0.000           0.000           1.000       3.515e-07         -0.7176
Strip 30
 377       2.391e-01      -6.158e-01       2.969e-09           0.000          -0.000           1.000       5.793e-07         -0.0049
 378       2.340e-01      -6.158e-01       5.344e-09          -0.000          -0.000           1.000       1.704e-06         -0.0087
 379       2.224e-01      -6.158e-01      -3.684e-09           0.000           0.000           1.000       2.730e-06         -0.0129
 380       2.048e-01      -6.158e-01       2.155e-08          -0.000          -0.000           1.000       3.597e-06         -0.0177
 381       1.825e-01      -6.158e-01       3.597e-08           0.000           0.000           1.000       4.255e-06         -0.0232
 382       1.566e-01      -6.158e-01       3.404e-07           0.000           0.000           1.000       4.666e-06         -0.0299
 383       1.286e-01      -6.158e-01       9.808e-07           0.000          -0.000           1.000       4.806e-06         -0.0387
 384       1.002e-01      -6.158e-01      -1.320e-08          -0.000          -0.000           1.000       4.666e-06         -0.0526
 385       7.312e-02      -6.158e-01      -1.718e-06           0.000           0.000           1.000       4.255e-06         -0.0717
 386       4.879e-02      -6.158e-01       2.214e-06          -0.000          -0.000           1.000       3.597e-06         -0.1090
 387       2.870e-02      -6.158e-01      -2.639e-07          -0.000          -0.000           1.000       2.730e-06         -0.1731
 388       1.399e-02      -6.158e-01      -8.033e-07           0.000           0.000           1.000       1.704e-06         -0.3032
 389       5.528e-03      -6.158e-01      -4.782e-07           0.000           0.000           1.000       5.793e-07         -0.7207
Strip 31
 390       2.391e-01      -6.156e-01       2.970e-09           0.000          -0.000           1.000       7.972e-07         -0.0050
 391       2.340e-01      -6.156e-01       5.345e-09          -0.000          -0.000           1.000       2.345e-06         -0.0087
 392       2.224e-01      -6.156e-01      -3.685e-09           0.000           0.000           1.000       3.757e-06         -0.0130
 393       2.048e-01      -6.156e-01       2.155e-08          -0.000          -0.000           1.000       4.951e-06         -0.0178
 394       1.825e-01      -6.156e-01       3.597e-08           0.000           0.000           1.000       5.856e-06         -0.0233
 395       1.565e-01      -6.156e-01       3.405e-07           0.000           0.000           1.000       6.422e-06         -0.0301
 396       1.286e-01      -6.156e-01       9.810e-07           0.000          -0.000           1.000       6.614e-06         -0.0390
 397       1.002e-01      -6.156e-01      -1.320e-08          -0.000          -0.000           1.000       6.422e-06         -0.0530
 398       7.308e-02      -6.156e-01      -1.718e-06           0.000           0.000           1.000       5.856e-06         -0.0722
 399       4.875e-02      -6.156e-01       2.214e-06          -0.000          -0.000           1.000       4.951e-06         -0.1096
 400       2.865e-02      -6.156e-01      -2.640e-07          -0.000          -0.000           1.000       3.757e-06         -0.1739
 401       1.394e-02      -6.156e-01      -8.034e-07           0.000           0.000           1.000       2.345e-06         -0.3039
 402       5.479e-03      -6.156e-01      -4.783e-07           0.000           0.000           1.000       7.972e-07         -0.7250
Strip 32
 403       2.391e-01      -6.153e-01       2.970e-09           0.000          -0.000           1.000       1.002e-06         -0.0050
 404       2.340e-01      -6.153e-01       5.346e-09          -0.000          -0.000           1.000       2.947e-06         -0.0088
 405       2.224e-01      -6.153e-01      -3.686e-09           0.000           0.000           1.000       4.721e-06         -0.0131
 406       2.048e-01      -6.153e-01       2.156e-08          -0.000          -0.000           1.000       6.220e-06         -0.0179
 407       1.825e-01      -6.153e-01       3.598e-08           0.000           0.000           1.000       7.358e-06         -0.0235
 408       1.565e-01      -6.153e-01       3.405e-07           0.000           0.000           1.000       8.069e-06         -0.0303
 409       1.286e-01      -6.153e-01       9.813e-07           0.000          -0.000           1.000       8.310e-06         -0.0393
 410       1.002e-01      -6.153e-01      -1.321e-08          -0.000          -0.000           1.000       8.069e-06         -0.0534
 411       7.304e-02      -6.153e-01      -1.719e-06           0.000           0.000           1.000       7.358e-06         -0.0728
 412       4.870e-02      -6.153e-01       2.215e-06          -0.000          -0.000           1.000       6.220e-06         -0.1103
 413       2.859e-02      -6.153e-01      -2.641e-07          -0.000          -0.000           1.000       4.721e-06         -0.1747
 414       1.388e-02      -6.153e-01      -8.037e-07           0.000           0.000           1.000       2.947e-06         -0.3047
 415       5.414e-03      -6.153e-01      -4.784e-07           0.000           0.000           1.000       1.002e-06         -0.7306
Strip 33
 416       2.391e-01      -6.150e-01       2.971e-09           0.000           0.000           1.000       1.189e-06         -0.0050
 417       2.340e-01      -6.150e-01       5.348e-09          -0.000          -0.000           1.000       3.498e-06         -0.0089
 418       2.224e-01      -6.150e-01      -3.687e-09           0.000           0.000           1.000       5.604e-06         -0.0132
 419       2.048e-01      -6.150e-01       2.156e-08          -0.000          -0.000           1.000       7.385e-06         -0.0181
 420       1.824e-01      -6.150e-01       3.600e-08           0.000           0.000           1.000       8.736e-06         -0.0237
 421       1.565e-01      -6.150e-01       3.407e-07           0.000           0.000           1.000       9.579e-06         -0.0306
 422       1.285e-01      -6.150e-01       9.816e-07           0.000          -0.000           1.000       9.866e-06         -0.0396
 423       1.001e-01      -6.150e-01      -1.321e-08          -0.000          -0.000           1.000       9.579e-06         -0.0539
 424       7.298e-02      -6.150e-01      -1.719e-06           0.000           0.000           1.000       8.736e-06         -0.0734
 425       4.864e-02      -6.150e-01       2.216e-06          -0.000          -0.000           1.000       7.385e-06         -0.1112
 426       2.852e-02      -6.150e-01      -2.642e-07          -0.000          -0.000           1.000       5.604e-06         -0.1757
 427       1.380e-02      -6.150e-01      -8.039e-07           0.000           0.000           1.000       3.498e-06         -0.3056
 428       5.335e-03      -6.150e-01      -4.786e-07           0.000           0.000           1.000       1.189e-06         -0.7371
Strip 34
 429       2.391e-01      -6.146e-01       2.973e-09           0.000          -0.000           1.000       1.357e-06         -0.0051
 430       2.340e-01      -6.146e-01       5.350e-09          -0.000          -0.000           1.000       3.991e-06         -0.0089
 431       2.223e-01      -6.146e-01      -3.688e-09           0.000           0.000           1.000       6.393e-06         -0.0133
 432       2.048e-01      -6.146e-01       2.157e-08          -0.000          -0.000           1.000       8.424e-06         -0.0182
 433       1.824e-01      -6.146e-01       3.601e-08           0.000           0.000           1.000       9.965e-06         -0.0240
 434       1.565e-01      -6.146e-01       3.408e-07           0.000           0.000           1.000       1.093e-05         -0.0309
 435       1.285e-01      -6.146e-01       9.820e-07           0.000          -0.000           1.000       1.125e-05         -0.0401
 436       1.001e-01      -6.146e-01      -1.322e-08          -0.000          -0.000           1.000       1.093e-05         -0.0544
 437       7.291e-02      -6.146e-01      -1.720e-06           0.000           0.000           1.000       9.965e-06         -0.0742
 438       4.856e-02      -6.146e-01       2.217e-06          -0.000          -0.000           1.000       8.424e-06         -0.1121
 439       2.844e-02      -6.146e-01      -2.643e-07          -0.000          -0.000           1.000       6.393e-06         -0.1768
 440       1.371e-02      -6.146e-01      -8.043e-07           0.000           0.000           1.000       3.991e-06         -0.3067
 441       5.244e-03      -6.146e-01      -4.788e-07           0.000           0.000           1.000       1.357e-06         -0.7444
Strip 35
 442       2.391e-01      -6.142e-01       2.974e-09           0.000          -0.000           1.000       1.501e-06         -0.0051
 443       2.340e-01      -6.142e-01       5.353e-09          -0.000          -0.000           1.000       4.415e-06         -0.0090
 444       2.223e-01      -6.142e-01      -3.690e-09           0.000           0.000           1.000       7.073e-06         -0.0135
 445       2.048e-01      -6.142e-01       2.158e-08          -0.000          -0.000           1.000       9.320e-06         -0.0184
 446       1.824e-01      -6.142e-01       3.603e-08           0.000           0.000           1.000       1.103e-05         -0.0242
 447       1.564e-01      -6.142e-01       3.409e-07           0.000           0.000           1.000       1.209e-05         -0.0312
 448       1.284e-01      -6.142e-01       9.825e-07           0.000          -0.000           1.000       1.245e-05         -0.0405
 449       1.000e-01      -6.142e-01      -1.322e-08          -0.000          -0.000           1.000       1.209e-05         -0.0551
 450       7.284e-02      -6.142e-01      -1.721e-06           0.000           0.000           1.000       1.103e-05         -0.0750
 451       4.848e-02      -6.142e-01       2.218e-06          -0.000          -0.000           1.000       9.320e-06         -0.1131
 452       2.835e-02      -6.142e-01      -2.644e-07          -0.000          -0.000           1.000       7.073e-06         -0.1780
 453       1.362e-02      -6.142e-01      -8.046e-07           0.000           0.000           1.000       4.415e-06         -0.3081
 454       5.142e-03      -6.142e-01      -4.790e-07           0.000           0.000           1.000       1.501e-06         -0.7520
Strip 36
 455       2.391e-01      -6.138e-01       2.975e-09           0.000          -0.000           1.000       1.620e-06         -0.0052
 456       2.340e-01      -6.138e-01       5.355e-09          -0.000          -0.000           1.000       4.765e-06         -0.0091
 457       2.223e-01      -6.138e-01      -3.692e-09           0.000           0.000           1.000       7.633e-06         -0.0136
 458       2.048e-01      -6.138e-01       2.159e-08          -0.000          -0.000           1.000       1.006e-05         -0.0186
 459       1.824e-01      -6.138e-01       3.604e-08           0.000           0.000           1.000       1.190e-05         -0.0245
 460       1.564e-01      -6.138e-01       3.411e-07           0.000           0.000           1.000       1.305e-05         -0.0316
 461       1.284e-01      -6.138e-01       9.829e-07           0.000          -0.000           1.000       1.344e-05         -0.0410
 462       9.995e-02      -6.138e-01      -1.323e-08          -0.000          -0.000           1.000       1.305e-05         -0.0557
 463       7.276e-02      -6.138e-01      -1.722e-06           0.000           0.000           1.000       1.190e-05         -0.0759
 464       4.839e-02      -6.138e-01       2.219e-06          -0.000          -0.000           1.000       1.006e-05         -0.1142
 465       2.825e-02      -6.138e-01      -2.645e-07          -0.000          -0.000           1.000       7.633e-06         -0.1793
 466       1.351e-02      -6.138e-01      -8.050e-07           0.000           0.000           1.000       4.765e-06         -0.3097
 467       5.030e-03      -6.138e-01      -4.792e-07           0.000           0.000           1.000       1.620e-06         -0.7597
Strip 37
 468       2.391e-01      -6.133e-01       2.977e-09           0.000          -0.000           1.000       1.711e-06         -0.0052
 469       2.340e-01      -6.133e-01       5.358e-09          -0.000          -0.000           1.000       5.033e-06         -0.0092
 470       2.223e-01      -6.133e-01      -3.694e-09           0.000           0.000           1.000       8.063e-06         -0.0138
 471       2.048e-01      -6.133e-01       2.160e-08          -0.000          -0.000           1.000       1.062e-05         -0.0189
 472       1.823e-01      -6.133e-01       3.606e-08           0.000           0.000           1.000       1.257e-05         -0.0248
 473       1.563e-01      -6.133e-01       3.413e-07           0.000           0.000           1.000       1.378e-05         -0.0320
 474       1.283e-01      -6.133e-01       9.834e-07           0.000          -0.000           1.000       1.419e-05         -0.0415
 475       9.988e-02      -6.133e-01      -1.323e-08          -0.000          -0.000           1.000       1.378e-05         -0.0564
 476       7.268e-02      -6.133e-01      -1.722e-06           0.000           0.000           1.000       1.257e-05         -0.0768
 477       4.829e-02      -6.133e-01       2.220e-06          -0.000          -0.000           1.000       1.062e-05         -0.1154
 478       2.814e-02      -6.133e-01      -2.646e-07          -0.000          -0.000           1.000       8.063e-06         -0.1807
 479       1.339e-02      -6.133e-01      -8.054e-07           0.000           0.000           1.000       5.033e-06         -0.3117
 480       4.911e-03      -6.133e-01      -4.795e-07           0.000           0.000           1.000       1.711e-06         -0.7672
Strip 38
 481       2.391e-01      -6.128e-01       2.978e-09           0.000          -0.000           1.000       1.773e-06         -0.0053
 482       2.340e-01      -6.128e-01       5.361e-09          -0.000          -0.000           1.000       5.216e-06         -0.0093
[...]
1281       1.029e-01       6.231e-01      -1.295e-08          -0.000           0.000           1.000       1.731e-05         -0.0413
1282       7.622e-02       6.231e-01      -1.686e-06           0.000          -0.000           1.000       1.578e-05         -0.0561
1283       5.236e-02       6.231e-01       2.173e-06          -0.000           0.000           1.000       1.334e-05         -0.0881
1284       3.263e-02       6.231e-01      -2.590e-07          -0.000           0.000           1.000       1.013e-05         -0.1455
1285       1.820e-02       6.231e-01      -7.883e-07           0.000          -0.000           1.000       6.321e-06         -0.2649
1286       9.895e-03       6.231e-01      -4.693e-07           0.000          -0.000           1.000       2.149e-06         -0.6732
Strip 100
1287       2.392e-01       6.237e-01       2.909e-09           0.000          -0.000           1.000       1.348e-06         -0.0040
1288       2.341e-01       6.237e-01       5.236e-09          -0.000           0.000           1.000       3.967e-06         -0.0070
1289       2.227e-01       6.237e-01      -3.609e-09           0.000          -0.000           1.000       6.355e-06         -0.0102
1290       2.056e-01       6.237e-01       2.111e-08          -0.000           0.000           1.000       8.373e-06         -0.0139
1291       1.836e-01       6.237e-01       3.524e-08           0.000          -0.000           1.000       9.905e-06         -0.0181
1292       1.583e-01       6.237e-01       3.335e-07           0.000          -0.000           1.000       1.086e-05         -0.0232
1293       1.309e-01       6.237e-01       9.610e-07           0.000           0.000           1.000       1.119e-05         -0.0298
1294       1.031e-01       6.237e-01      -1.293e-08          -0.000           0.000           1.000       1.086e-05         -0.0403
1295       7.650e-02       6.237e-01      -1.683e-06           0.000          -0.000           1.000       9.905e-06         -0.0546
1296       5.267e-02       6.237e-01       2.169e-06          -0.000           0.000           1.000       8.373e-06         -0.0860
1297       3.298e-02       6.237e-01      -2.586e-07          -0.000           0.000           1.000       6.355e-06         -0.1428
1298       1.857e-02       6.237e-01      -7.870e-07           0.000          -0.000           1.000       3.967e-06         -0.2604
1299       1.028e-02       6.237e-01      -4.685e-07           0.000          -0.000           1.000       1.348e-06         -0.6700
Strip 101
1300       2.392e-01       6.239e-01       2.906e-09           0.000           0.000           1.000       4.595e-07         -0.0040
1301       2.341e-01       6.239e-01       5.231e-09          -0.000           0.000           1.000       1.352e-06         -0.0069
1302       2.227e-01       6.239e-01      -3.606e-09           0.000          -0.000           1.000       2.166e-06         -0.0101
1303       2.056e-01       6.239e-01       2.109e-08          -0.000           0.000           1.000       2.854e-06         -0.0136
1304       1.837e-01       6.239e-01       3.521e-08           0.000          -0.000           1.000       3.376e-06         -0.0177
1305       1.583e-01       6.239e-01       3.332e-07           0.000          -0.000           1.000       3.702e-06         -0.0227
1306       1.310e-01       6.239e-01       9.601e-07           0.000           0.000           1.000       3.812e-06         -0.0291
1307       1.032e-01       6.239e-01      -1.292e-08          -0.000           0.000           1.000       3.702e-06         -0.0394
1308       7.664e-02       6.239e-01      -1.682e-06           0.000          -0.000           1.000       3.376e-06         -0.0534
1309       5.283e-02       6.239e-01       2.167e-06          -0.000           0.000           1.000       2.854e-06         -0.0844
1310       3.316e-02       6.239e-01      -2.584e-07          -0.000           0.000           1.000       2.166e-06         -0.1407
1311       1.876e-02       6.239e-01      -7.863e-07           0.000          -0.000           1.000       1.352e-06         -0.2569
1312       1.048e-02       6.239e-01      -4.681e-07           0.000          -0.000           1.000       4.595e-07         -0.6664
Strip 102
1313       2.392e-01       6.250e-01       2.896e-09           0.000           0.000           1.000       6.720e-06         -0.0039
1314       2.342e-01       6.250e-01       5.213e-09          -0.000           0.000           1.000       1.977e-05         -0.0068
1315       2.228e-01       6.250e-01      -3.594e-09           0.000          -0.000           1.000       3.167e-05         -0.0098
1316       2.057e-01       6.250e-01       2.102e-08          -0.000           0.000           1.000       4.173e-05         -0.0133
1317       1.839e-01       6.250e-01       3.509e-08           0.000          -0.000           1.000       4.936e-05         -0.0173
1318       1.586e-01       6.250e-01       3.320e-07           0.000          -0.000           1.000       5.413e-05         -0.0222
1319       1.313e-01       6.250e-01       9.568e-07           0.000           0.000           1.000       5.575e-05         -0.0284
1320       1.037e-01       6.250e-01      -1.288e-08          -0.000           0.000           1.000       5.413e-05         -0.0385
1321       7.720e-02       6.250e-01      -1.676e-06           0.000          -0.000           1.000       4.936e-05         -0.0520
1322       5.348e-02       6.250e-01       2.160e-06          -0.000           0.000           1.000       4.173e-05         -0.0825
1323       3.387e-02       6.250e-01      -2.575e-07          -0.000           0.000           1.000       3.167e-05         -0.1383
1324       1.952e-02       6.250e-01      -7.836e-07           0.000          -0.000           1.000       1.977e-05         -0.2529
1325       1.127e-02       6.250e-01      -4.665e-07           0.000          -0.000           1.000       6.720e-06         -0.6631
Strip 103
1326       2.392e-01       6.267e-01       2.880e-09           0.000           0.000           1.000       4.892e-06         -0.0037
1327       2.342e-01       6.267e-01       5.184e-09          -0.000           0.000           1.000       1.439e-05         -0.0064
1328       2.229e-01       6.267e-01      -3.574e-09           0.000          -0.000           1.000       2.305e-05         -0.0092
1329       2.059e-01       6.267e-01       2.090e-08          -0.000           0.000           1.000       3.038e-05         -0.0125
1330       1.842e-01       6.267e-01       3.489e-08           0.000          -0.000           1.000       3.593e-05         -0.0162
1331       1.591e-01       6.267e-01       3.302e-07           0.000          -0.000           1.000       3.940e-05         -0.0207
1332       1.320e-01       6.267e-01       9.514e-07           0.000           0.000           1.000       4.058e-05         -0.0265
1333       1.044e-01       6.267e-01      -1.280e-08          -0.000           0.000           1.000       3.940e-05         -0.0358
1334       7.812e-02       6.267e-01      -1.666e-06           0.000          -0.000           1.000       3.593e-05         -0.0483
1335       5.452e-02       6.267e-01       2.148e-06          -0.000           0.000           1.000       3.038e-05         -0.0773
1336       3.503e-02       6.267e-01      -2.560e-07          -0.000           0.000           1.000       2.305e-05         -0.1324
1337       2.076e-02       6.267e-01      -7.792e-07           0.000          -0.000           1.000       1.439e-05         -0.2445
1338       1.255e-02       6.267e-01      -4.639e-07           0.000          -0.000           1.000       4.892e-06         -0.6363
Strip 104
1339       2.392e-01       6.277e-01       2.871e-09           0.000           0.000           1.000       1.785e-06         -0.0036
1340       2.342e-01       6.277e-01       5.167e-09          -0.000           0.000           1.000       5.250e-06         -0.0061
1341       2.229e-01       6.277e-01      -3.562e-09           0.000          -0.000           1.000       8.410e-06         -0.0088
1342       2.060e-01       6.277e-01       2.083e-08          -0.000           0.000           1.000       1.108e-05         -0.0118
1343       1.844e-01       6.277e-01       3.477e-08           0.000          -0.000           1.000       1.311e-05         -0.0154
1344       1.593e-01       6.277e-01       3.291e-07           0.000          -0.000           1.000       1.438e-05         -0.0196
1345       1.323e-01       6.277e-01       9.483e-07           0.000           0.000           1.000       1.481e-05         -0.0250
1346       1.049e-01       6.277e-01      -1.276e-08          -0.000           0.000           1.000       1.438e-05         -0.0338
1347       7.865e-02       6.277e-01      -1.661e-06           0.000          -0.000           1.000       1.311e-05         -0.0453
1348       5.513e-02       6.277e-01       2.141e-06          -0.000           0.000           1.000       1.108e-05         -0.0731
1349       3.570e-02       6.277e-01      -2.552e-07          -0.000           0.000           1.000       8.410e-06         -0.1275
1350       2.148e-02       6.277e-01      -7.767e-07           0.000          -0.000           1.000       5.250e-06         -0.2407
1351       1.330e-02       6.277e-01      -4.624e-07           0.000          -0.000           1.000       1.785e-06         -0.6053
Strip 105
1352       2.392e-01       6.294e-01       2.846e-09           0.000           0.000           1.000       9.338e-06         -0.0034
1353       2.343e-01       6.294e-01       5.122e-09          -0.000           0.000           1.000       2.747e-05         -0.0057
1354       2.231e-01       6.294e-01      -3.531e-09           0.000          -0.000           1.000       4.401e-05         -0.0083
1355       2.063e-01       6.294e-01       2.065e-08          -0.000           0.000           1.000       5.799e-05         -0.0111
1356       1.849e-01       6.294e-01       3.448e-08           0.000          -0.000           1.000       6.860e-05         -0.0144
1357       1.600e-01       6.294e-01       3.263e-07           0.000          -0.000           1.000       7.522e-05         -0.0184
1358       1.332e-01       6.294e-01       9.402e-07           0.000           0.000           1.000       7.747e-05         -0.0234
1359       1.060e-01       6.294e-01      -1.265e-08          -0.000           0.000           1.000       7.522e-05         -0.0315
1360       8.003e-02       6.294e-01      -1.647e-06           0.000          -0.000           1.000       6.860e-05         -0.0420
1361       5.672e-02       6.294e-01       2.122e-06          -0.000           0.000           1.000       5.799e-05         -0.0684
1362       3.745e-02       6.294e-01      -2.530e-07          -0.000           0.000           1.000       4.401e-05         -0.1216
1363       2.335e-02       6.294e-01      -7.700e-07           0.000          -0.000           1.000       2.747e-05         -0.2333
1364       1.524e-02       6.294e-01      -4.584e-07           0.000          -0.000           1.000       9.338e-06         -0.5873
Strip 106
1365       2.392e-01       6.314e-01       2.815e-09           0.000           0.000           1.000       3.825e-06         -0.0031
1366       2.343e-01       6.314e-01       5.066e-09          -0.000           0.000           1.000       1.125e-05         -0.0052
1367       2.233e-01       6.314e-01      -3.492e-09           0.000          -0.000           1.000       1.803e-05         -0.0075
1368       2.067e-01       6.314e-01       2.043e-08          -0.000           0.000           1.000       2.375e-05         -0.0100
1369       1.855e-01       6.314e-01       3.410e-08           0.000          -0.000           1.000       2.810e-05         -0.0130
1370       1.609e-01       6.314e-01       3.227e-07           0.000          -0.000           1.000       3.081e-05         -0.0165
1371       1.344e-01       6.314e-01       9.299e-07           0.000           0.000           1.000       3.174e-05         -0.0209
1372       1.075e-01       6.314e-01      -1.251e-08          -0.000           0.000           1.000       3.081e-05         -0.0280
1373       8.179e-02       6.314e-01      -1.629e-06           0.000          -0.000           1.000       2.810e-05         -0.0370
1374       5.873e-02       6.314e-01       2.099e-06          -0.000           0.000           1.000       2.375e-05         -0.0605
1375       3.968e-02       6.314e-01      -2.502e-07          -0.000           0.000           1.000       1.803e-05         -0.1119
1376       2.574e-02       6.314e-01      -7.615e-07           0.000          -0.000           1.000       1.125e-05         -0.2179
1377       1.772e-02       6.314e-01      -4.534e-07           0.000          -0.000           1.000       3.825e-06         -0.5639
Strip 107
1378       2.392e-01       6.334e-01       2.775e-09           0.000           0.000           1.000       9.103e-06         -0.0028
1379       2.344e-01       6.334e-01       4.994e-09          -0.000           0.000           1.000       2.678e-05         -0.0047
1380       2.235e-01       6.334e-01      -3.443e-09           0.000          -0.000           1.000       4.290e-05         -0.0066
1381       2.071e-01       6.334e-01       2.014e-08          -0.000           0.000           1.000       5.653e-05         -0.0089
1382       1.862e-01       6.334e-01       3.361e-08           0.000          -0.000           1.000       6.687e-05         -0.0115
1383       1.620e-01       6.334e-01       3.181e-07           0.000          -0.000           1.000       7.333e-05         -0.0145
1384       1.359e-01       6.334e-01       9.166e-07           0.000           0.000           1.000       7.552e-05         -0.0183
1385       1.094e-01       6.334e-01      -1.233e-08          -0.000           0.000           1.000       7.333e-05         -0.0244
1386       8.405e-02       6.334e-01      -1.605e-06           0.000          -0.000           1.000       6.687e-05         -0.0318
1387       6.132e-02       6.334e-01       2.069e-06          -0.000           0.000           1.000       5.653e-05         -0.0518
1388       4.254e-02       6.334e-01      -2.466e-07          -0.000           0.000           1.000       4.290e-05         -0.1007
1389       2.879e-02       6.334e-01      -7.507e-07           0.000          -0.000           1.000       2.678e-05         -0.2012
1390       2.089e-02       6.334e-01      -4.469e-07           0.000          -0.000           1.000       9.103e-06         -0.5410
Strip 108
1391       2.392e-01       6.354e-01       2.731e-09           0.000           0.000           1.000       3.711e-06         -0.0024
1392       2.345e-01       6.354e-01       4.915e-09          -0.000           0.000           1.000       1.092e-05         -0.0040
1393       2.238e-01       6.354e-01      -3.388e-09           0.000          -0.000           1.000       1.749e-05         -0.0056
1394       2.077e-01       6.354e-01       1.982e-08          -0.000           0.000           1.000       2.305e-05         -0.0075
1395       1.871e-01       6.354e-01       3.308e-08           0.000          -0.000           1.000       2.726e-05         -0.0096
1396       1.633e-01       6.354e-01       3.131e-07           0.000          -0.000           1.000       2.989e-05         -0.0121
1397       1.376e-01       6.354e-01       9.021e-07           0.000           0.000           1.000       3.079e-05         -0.0152
1398       1.115e-01       6.354e-01      -1.214e-08          -0.000           0.000           1.000       2.989e-05         -0.0201
1399       8.651e-02       6.354e-01      -1.580e-06           0.000          -0.000           1.000       2.726e-05         -0.0258
1400       6.414e-02       6.354e-01       2.036e-06          -0.000           0.000           1.000       2.305e-05         -0.0416
1401       4.566e-02       6.354e-01      -2.427e-07          -0.000           0.000           1.000       1.749e-05         -0.0896
1402       3.213e-02       6.354e-01      -7.388e-07           0.000          -0.000           1.000       1.092e-05         -0.1759
1403       2.435e-02       6.354e-01      -4.398e-07           0.000          -0.000           1.000       3.711e-06         -0.4900
Strip 109
1404       2.392e-01       6.374e-01       2.643e-09           0.000           0.000           1.000       8.671e-06         -0.0020
1405       2.347e-01       6.374e-01       4.756e-09          -0.000           0.000           1.000       2.551e-05         -0.0032
1406       2.243e-01       6.374e-01      -3.279e-09           0.000          -0.000           1.000       4.086e-05         -0.0045
1407       2.087e-01       6.374e-01       1.918e-08          -0.000           0.000           1.000       5.384e-05         -0.0060
1408       1.888e-01       6.374e-01       3.201e-08           0.000          -0.000           1.000       6.369e-05         -0.0077
1409       1.657e-01       6.374e-01       3.030e-07           0.000          -0.000           1.000       6.984e-05         -0.0096
1410       1.409e-01       6.374e-01       8.730e-07           0.000           0.000           1.000       7.193e-05         -0.0118
1411       1.156e-01       6.374e-01      -1.175e-08          -0.000           0.000           1.000       6.984e-05         -0.0154
1412       9.147e-02       6.374e-01      -1.529e-06           0.000          -0.001           1.000       6.369e-05         -0.0190
1413       6.982e-02       6.374e-01       1.971e-06          -0.000           0.001           1.000       5.384e-05         -0.0285
1414       5.193e-02       6.374e-01      -2.349e-07          -0.000           0.000           1.000       4.086e-05         -0.0656
1415       3.884e-02       6.374e-01      -7.150e-07           0.000          -0.000           1.000       2.551e-05         -0.1757
1416       3.131e-02       6.374e-01      -4.256e-07           0.000          -0.001           1.000       8.671e-06         -0.4244
Strip 110
1417       2.393e-01       6.394e-01       2.536e-09           0.000           0.000           1.000       3.447e-06         -0.0013
1418       2.349e-01       6.394e-01       4.565e-09          -0.000           0.000           1.000       1.014e-05         -0.0020
1419       2.249e-01       6.394e-01      -3.147e-09           0.000          -0.000           1.000       1.624e-05         -0.0028
1420       2.100e-01       6.394e-01       1.841e-08          -0.000           0.000           1.000       2.140e-05         -0.0036
1421       1.909e-01       6.394e-01       3.072e-08           0.000          -0.000           1.000       2.532e-05         -0.0047
1422       1.687e-01       6.394e-01       2.907e-07           0.000          -0.000           1.000       2.776e-05         -0.0058
1423       1.449e-01       6.394e-01       8.378e-07           0.000           0.000           1.000       2.860e-05         -0.0071
1424       1.206e-01       6.394e-01      -1.127e-08          -0.000           0.000           1.000       2.776e-05         -0.0090
1425       9.745e-02       6.394e-01      -1.467e-06           0.000          -0.001           1.000       2.532e-05         -0.0108
1426       7.667e-02       6.394e-01       1.891e-06          -0.000           0.001           1.000       2.140e-05         -0.0153
1427       5.951e-02       6.394e-01      -2.255e-07          -0.000           0.000           1.000       1.624e-05         -0.0280
1428       4.694e-02       6.394e-01      -6.862e-07           0.000          -0.000           1.000       1.014e-05         -0.0876
1429       3.972e-02       6.394e-01      -4.085e-07           0.000          -0.001           1.000       3.447e-06         -0.4278










