xflr5 v6.50

Plane Name
T1-44.0 m/s-VLM1
QInf  =   44.000000 m/s
Alpha =   -0.500000
Beta  =    0.000°
Phi   =    0.000°
Ctrl  =    0.000
CL    =   -0.037374
Cy    =    0.000000
Cd    =    0.006996     ICd   =    0.000076     PCd   =    0.006920
Cl   = 3.85165e-17
Cm   =  0.00902807
ICn   =   -0.000000     PCn   =    0.000000 
XCP   =    0.057755     YCP   =    0.000000     ZCP   =   -0.000000  
XNP   =    0.000000
Bending =   -1.192773

Main Wing
  y-span        Chord      Ai         Cl        PCd          ICd        CmGeom    CmAirf@chord/4    XTrtop    XTrBot      XCP       BM
   -0.6394     0.2025     0.195   -0.004531    0.007395    0.000015    0.001567   -0.000433     0.6796    0.6778    0.1544    0.0000
   -0.6374     0.2110     0.194   -0.007243    0.007274    0.000024    0.002228   -0.000603     0.6775    0.6745    0.1667   -0.0000
   -0.6354     0.2180     0.193   -0.008799    0.007181    0.000030    0.002465   -0.000643     0.6758    0.6721    0.1769   -0.0000
   -0.6334     0.2215     0.191   -0.010233    0.007134    0.000034    0.002739   -0.000693     0.6751    0.6708    0.1822   -0.0000
   -0.6314     0.2247     0.190   -0.011352    0.007092    0.000038    0.002916   -0.000713     0.6745    0.6696    0.1872   -0.0001
   -0.6294     0.2272     0.189   -0.012393    0.007059    0.000041    0.003084   -0.000730     0.6740    0.6686    0.1911   -0.0001
   -0.6277     0.2292     0.188   -0.013041    0.007034    0.000043    0.003159   -0.000734     0.6735    0.6679    0.1937   -0.0002
   -0.6267     0.2300     0.188   -0.013640    0.007024    0.000045    0.003282   -0.000742     0.6734    0.6675    0.1956   -0.0002
   -0.6250     0.2313     0.187   -0.014383    0.007007    0.000047    0.003409   -0.000749     0.6732    0.6670    0.1980   -0.0003
   -0.6239     0.2321     0.186   -0.014649    0.006997    0.000048    0.003434   -0.000747     0.6730    0.6667    0.1990   -0.0003
   -0.6237     0.2323     0.186   -0.014882    0.006995    0.000048    0.003486   -0.000748     0.6730    0.6666    0.1997   -0.0003
   -0.6231     0.2326     0.186   -0.015169    0.006990    0.000049    0.003542   -0.000747     0.6730    0.6664    0.2007   -0.0003
   -0.6224     0.2332     0.186   -0.015500    0.006983    0.000050    0.003599   -0.000746     0.6729    0.6661    0.2019   -0.0004
   -0.6215     0.2339     0.185   -0.015863    0.006974    0.000051    0.003656   -0.000743     0.6728    0.6659    0.2032   -0.0004
   -0.6205     0.2346     0.185   -0.016227    0.006965    0.000052    0.003708   -0.000738     0.6726    0.6656    0.2045   -0.0005
   -0.6200     0.2350     0.184   -0.016315    0.006959    0.000052    0.003704   -0.000737     0.6725    0.6654    0.2048   -0.0005
   -0.6199     0.2350     0.184   -0.016394    0.006959    0.000053    0.003724   -0.000736     0.6725    0.6654    0.2051   -0.0005
   -0.6198     0.2351     0.184   -0.016490    0.006958    0.000053    0.003746   -0.000736     0.6725    0.6654    0.2054   -0.0005
   -0.6196     0.2352     0.184   -0.016601    0.006957    0.000053    0.003769   -0.000735     0.6725    0.6653    0.2057   -0.0005
   -0.6193     0.2353     0.184   -0.016726    0.006955    0.000054    0.003794   -0.000735     0.6725    0.6652    0.2061   -0.0006
   -0.6190     0.2355     0.184   -0.016868    0.006953    0.000054    0.003822   -0.000734     0.6725    0.6652    0.2065   -0.0006
   -0.6186     0.2357     0.184   -0.017024    0.006951    0.000055    0.003851   -0.000733     0.6725    0.6651    0.2069   -0.0006
   -0.6182     0.2359     0.183   -0.017193    0.006949    0.000055    0.003882   -0.000732     0.6725    0.6650    0.2074   -0.0006
   -0.6178     0.2361     0.183   -0.017372    0.006946    0.000056    0.003914   -0.000731     0.6724    0.6649    0.2079   -0.0007
   -0.6173     0.2364     0.183   -0.017560    0.006943    0.000056    0.003947   -0.000730     0.6724    0.6648    0.2084   -0.0007
   -0.6168     0.2366     0.183   -0.017750    0.006940    0.000057    0.003979   -0.000728     0.6724    0.6646    0.2090   -0.0007
   -0.6163     0.2369     0.182   -0.017937    0.006936    0.000057    0.004010   -0.000727     0.6723    0.6645    0.2095   -0.0008
   -0.6160     0.2370     0.182   -0.018005    0.006935    0.000057    0.004017   -0.000727     0.6723    0.6645    0.2096   -0.0008
   -0.6159     0.2370     0.182   -0.018062    0.006934    0.000057    0.004032   -0.000727     0.6723    0.6645    0.2098   -0.0008
   -0.6158     0.2371     0.182   -0.018137    0.006934    0.000058    0.004049   -0.000727     0.6723    0.6644    0.2099   -0.0008
   -0.6156     0.2371     0.182   -0.018230    0.006933    0.000058    0.004069   -0.000727     0.6723    0.6644    0.2101   -0.0008
   -0.6153     0.2372     0.182   -0.018343    0.006933    0.000058    0.004094   -0.000727     0.6723    0.6643    0.2104   -0.0009
   -0.6150     0.2372     0.182   -0.018474    0.006932    0.000059    0.004122   -0.000727     0.6723    0.6643    0.2107   -0.0009
   -0.6146     0.2373     0.182   -0.018623    0.006931    0.000059    0.004153   -0.000727     0.6723    0.6642    0.2110   -0.0009
   -0.6142     0.2374     0.181   -0.018788    0.006929    0.000059    0.004188   -0.000727     0.6724    0.6642    0.2113   -0.0010
   -0.6138     0.2376     0.181   -0.018966    0.006928    0.000060    0.004225   -0.000727     0.6724    0.6641    0.2117   -0.0010
   -0.6133     0.2377     0.181   -0.019155    0.006927    0.000060    0.004264   -0.000727     0.6724    0.6640    0.2120   -0.0010
   -0.6128     0.2378     0.181   -0.019352    0.006925    0.000061    0.004305   -0.000727     0.6724    0.6639    0.2124   -0.0011
   -0.6123     0.2379     0.180   -0.019553    0.006924    0.000062    0.004347   -0.000727     0.6724    0.6639    0.2128   -0.0011
   -0.6119     0.2380     0.180   -0.019687    0.006923    0.000062    0.004375   -0.000726     0.6724    0.6638    0.2131   -0.0012
   -0.6117     0.2381     0.180   -0.019817    0.006922    0.000062    0.004403   -0.000726     0.6724    0.6638    0.2134   -0.0012
   -0.6111     0.2382     0.180   -0.020022    0.006920    0.000063    0.004446   -0.000725     0.6724    0.6637    0.2138   -0.0013
   -0.6104     0.2384     0.179   -0.020300    0.006918    0.000064    0.004503   -0.000724     0.6724    0.6636    0.2143   -0.0013
   -0.6095     0.2386     0.179   -0.020638    0.006916    0.000064    0.004572   -0.000722     0.6724    0.6634    0.2150   -0.0014
   -0.6085     0.2389     0.179   -0.021020    0.006913    0.000065    0.004650   -0.000719     0.6724    0.6633    0.2158   -0.0016
   -0.6077     0.2391     0.178   -0.021365    0.006912    0.000066    0.004723   -0.000717     0.6724    0.6632    0.2165   -0.0017
   -0.6067     0.2393     0.178   -0.021753    0.006910    0.000067    0.004802   -0.000713     0.6725    0.6630    0.2172   -0.0018
   -0.6050     0.2397     0.177   -0.022398    0.006906    0.000069    0.004930   -0.000708     0.6725    0.6628    0.2184   -0.0020
   -0.6037     0.2400     0.176   -0.022951    0.006904    0.000071    0.005046   -0.000707     0.6725    0.6626    0.2192   -0.0022
   -0.6027     0.2400     0.176   -0.023518    0.006905    0.000072    0.005185   -0.000709     0.6727    0.6625    0.2198   -0.0024
   -0.6010     0.2400     0.175   -0.024508    0.006905    0.000075    0.005427   -0.000715     0.6729    0.6622    0.2208   -0.0027
   -0.5772     0.2400     0.166   -0.026590    0.006907    0.000077    0.005936   -0.000727     0.6733    0.6618    0.2227   -0.0069
   -0.4893     0.2400     0.141   -0.034153    0.006911    0.000084    0.008005   -0.000548     0.6749    0.6602    0.2340   -0.0529
   -0.3269     0.2400     0.112   -0.040018    0.006915    0.000079    0.009718   -0.000301     0.6761    0.6589    0.2425   -0.3432
   -0.1148     0.2400     0.097   -0.042644    0.006917    0.000072    0.010481   -0.000196     0.6767    0.6584    0.2454   -1.1928
    0.1148     0.2400     0.097   -0.042644    0.006917    0.000072    0.010481   -0.000196     0.6767    0.6584    0.2454   -1.1928
    0.3269     0.2400     0.112   -0.040018    0.006915    0.000079    0.009718   -0.000301     0.6761    0.6589    0.2425   -0.3432
    0.4893     0.2400     0.141   -0.034153    0.006911    0.000084    0.008005   -0.000548     0.6749    0.6602    0.2340   -0.0529
    0.5772     0.2400     0.166   -0.026590    0.006907    0.000077    0.005936   -0.000727     0.6733    0.6618    0.2227   -0.0069
    0.6010     0.2400     0.175   -0.024508    0.006905    0.000075    0.005427   -0.000715     0.6729    0.6622    0.2208   -0.0027
    0.6027     0.2400     0.176   -0.023518    0.006905    0.000072    0.005185   -0.000709     0.6727    0.6625    0.2198   -0.0024
    0.6037     0.2400     0.176   -0.022951    0.006904    0.000071    0.005046   -0.000707     0.6725    0.6626    0.2192   -0.0022
    0.6050     0.2397     0.177   -0.022398    0.006906    0.000069    0.004930   -0.000708     0.6725    0.6628    0.2184   -0.0020
    0.6067     0.2393     0.178   -0.021753    0.006910    0.000067    0.004802   -0.000713     0.6725    0.6630    0.2172   -0.0018
    0.6077     0.2391     0.178   -0.021365    0.006912    0.000066    0.004723   -0.000717     0.6724    0.6632    0.2165   -0.0017
    0.6085     0.2389     0.179   -0.021020    0.006913    0.000065    0.004650   -0.000719     0.6724    0.6633    0.2158   -0.0016
    0.6095     0.2386     0.179   -0.020638    0.006916    0.000064    0.004572   -0.000722     0.6724    0.6634    0.2150   -0.0014
    0.6104     0.2384     0.179   -0.020300    0.006918    0.000064    0.004503   -0.000724     0.6724    0.6636    0.2143   -0.0013
    0.6111     0.2382     0.180   -0.020022    0.006920    0.000063    0.004446   -0.000725     0.6724    0.6637    0.2138   -0.0013
    0.6117     0.2381     0.180   -0.019817    0.006922    0.000062    0.004403   -0.000726     0.6724    0.6638    0.2134   -0.0012
    0.6119     0.2380     0.180   -0.019687    0.006923    0.000062    0.004375   -0.000726     0.6724    0.6638    0.2131   -0.0012
    0.6123     0.2379     0.180   -0.019553    0.006924    0.000062    0.004347   -0.000727     0.6724    0.6639    0.2128   -0.0011
    0.6128     0.2378     0.181   -0.019352    0.006925    0.000061    0.004305   -0.000727     0.6724    0.6639    0.2124   -0.0011
    0.6133     0.2377     0.181   -0.019155    0.006927    0.000060    0.004264   -0.000727     0.6724    0.6640    0.2120   -0.0010
    0.6138     0.2376     0.181   -0.018966    0.006928    0.000060    0.004225   -0.000727     0.6724    0.6641    0.2117   -0.0010
    0.6142     0.2374     0.181   -0.018788    0.006929    0.000059    0.004188   -0.000727     0.6724    0.6642    0.2113   -0.0010
    0.6146     0.2373     0.182   -0.018623    0.006931    0.000059    0.004153   -0.000727     0.6723    0.6642    0.2110   -0.0009
    0.6150     0.2372     0.182   -0.018474    0.006932    0.000059    0.004122   -0.000727     0.6723    0.6643    0.2107   -0.0009
    0.6153     0.2372     0.182   -0.018343    0.006933    0.000058    0.004094   -0.000727     0.6723    0.6643    0.2104   -0.0009
    0.6156     0.2371     0.182   -0.018230    0.006933    0.000058    0.004069   -0.000727     0.6723    0.6644    0.2101   -0.0008
    0.6158     0.2371     0.182   -0.018137    0.006934    0.000058    0.004049   -0.000727     0.6723    0.6644    0.2099   -0.0008
    0.6159     0.2370     0.182   -0.018062    0.006934    0.000057    0.004032   -0.000727     0.6723    0.6645    0.2098   -0.0008
    0.6160     0.2370     0.182   -0.018005    0.006935    0.000057    0.004017   -0.000727     0.6723    0.6645    0.2096   -0.0008
    0.6163     0.2369     0.182   -0.017937    0.006936    0.000057    0.004010   -0.000727     0.6723    0.6645    0.2095   -0.0008
    0.6168     0.2366     0.183   -0.017750    0.006940    0.000057    0.003979   -0.000728     0.6724    0.6646    0.2090   -0.0007
    0.6173     0.2364     0.183   -0.017560    0.006943    0.000056    0.003947   -0.000730     0.6724    0.6648    0.2084   -0.0007
    0.6178     0.2361     0.183   -0.017372    0.006946    0.000056    0.003914   -0.000731     0.6724    0.6649    0.2079   -0.0007
    0.6182     0.2359     0.183   -0.017193    0.006949    0.000055    0.003882   -0.000732     0.6725    0.6650    0.2074   -0.0006
    0.6186     0.2357     0.184   -0.017024    0.006951    0.000055    0.003851   -0.000733     0.6725    0.6651    0.2069   -0.0006
    0.6190     0.2355     0.184   -0.016868    0.006953    0.000054    0.003822   -0.000734     0.6725    0.6652    0.2065   -0.0006
    0.6193     0.2353     0.184   -0.016726    0.006955    0.000054    0.003794   -0.000735     0.6725    0.6652    0.2061   -0.0006
    0.6196     0.2352     0.184   -0.016601    0.006957    0.000053    0.003769   -0.000735     0.6725    0.6653    0.2057   -0.0005
    0.6198     0.2351     0.184   -0.016490    0.006958    0.000053    0.003746   -0.000736     0.6725    0.6654    0.2054   -0.0005
    0.6199     0.2350     0.184   -0.016394    0.006959    0.000053    0.003724   -0.000736     0.6725    0.6654    0.2051   -0.0005
    0.6200     0.2350     0.184   -0.016315    0.006959    0.000052    0.003704   -0.000737     0.6725    0.6654    0.2048   -0.0005
    0.6205     0.2346     0.185   -0.016227    0.006965    0.000052    0.003708   -0.000738     0.6726    0.6656    0.2045   -0.0005
    0.6215     0.2339     0.185   -0.015863    0.006974    0.000051    0.003656   -0.000743     0.6728    0.6659    0.2032   -0.0004
    0.6224     0.2332     0.186   -0.015500    0.006983    0.000050    0.003599   -0.000746     0.6729    0.6661    0.2019   -0.0004
    0.6231     0.2326     0.186   -0.015169    0.006990    0.000049    0.003542   -0.000747     0.6730    0.6664    0.2007   -0.0003
    0.6237     0.2323     0.186   -0.014882    0.006995    0.000048    0.003486   -0.000748     0.6730    0.6666    0.1997   -0.0003
    0.6239     0.2321     0.186   -0.014649    0.006997    0.000048    0.003434   -0.000747     0.6730    0.6667    0.1990   -0.0003
    0.6250     0.2313     0.187   -0.014383    0.007007    0.000047    0.003409   -0.000749     0.6732    0.6670    0.1980   -0.0003
    0.6267     0.2300     0.188   -0.013640    0.007024    0.000045    0.003282   -0.000742     0.6734    0.6675    0.1956   -0.0002
    0.6277     0.2292     0.188   -0.013041    0.007034    0.000043    0.003159   -0.000734     0.6735    0.6679    0.1937   -0.0002
    0.6294     0.2272     0.189   -0.012393    0.007059    0.000041    0.003084   -0.000730     0.6740    0.6686    0.1911   -0.0001
    0.6314     0.2247     0.190   -0.011352    0.007092    0.000038    0.002916   -0.000713     0.6745    0.6696    0.1872   -0.0001
    0.6334     0.2215     0.191   -0.010233    0.007134    0.000034    0.002739   -0.000693     0.6751    0.6708    0.1822   -0.0000
    0.6354     0.2180     0.193   -0.008799    0.007181    0.000030    0.002465   -0.000643     0.6758    0.6721    0.1769   -0.0000
    0.6374     0.2110     0.194   -0.007243    0.007274    0.000024    0.002228   -0.000603     0.6775    0.6745    0.1667   -0.0000
    0.6394     0.2025     0.195   -0.004531    0.007395    0.000015    0.001567   -0.000433     0.6796    0.6778    0.1544    0.0000


Main Wing Cp Coefficients
 Panel     CtrlPt.x        CtrlPt.y        CtrlPt.z       Nx      Ny       Nz        Area       Cp
Main WingCp Coefficients
Strip 1
   0       2.393e-01      -6.394e-01       2.536e-09           0.000          -0.000           1.000       3.447e-06         -0.0003
   1       2.349e-01      -6.394e-01       4.565e-09          -0.000          -0.000           1.000       1.014e-05         -0.0005
   2       2.249e-01      -6.394e-01      -3.147e-09           0.000           0.000           1.000       1.624e-05         -0.0007
   3       2.100e-01      -6.394e-01       1.841e-08          -0.000          -0.000           1.000       2.140e-05         -0.0009
   4       1.909e-01      -6.394e-01       3.072e-08           0.000           0.000           1.000       2.532e-05         -0.0012
   5       1.687e-01      -6.394e-01       2.907e-07           0.000           0.000           1.000       2.776e-05         -0.0014
   6       1.449e-01      -6.394e-01       8.378e-07           0.000          -0.000           1.000       2.860e-05         -0.0017
   7       1.206e-01      -6.394e-01      -1.127e-08          -0.000          -0.000           1.000       2.776e-05         -0.0024
   8       9.745e-02      -6.394e-01      -1.467e-06           0.000           0.001           1.000       2.532e-05         -0.0026
   9       7.667e-02      -6.394e-01       1.891e-06          -0.000          -0.001           1.000       2.140e-05         -0.0038
  10       5.951e-02      -6.394e-01      -2.255e-07          -0.000          -0.000           1.000       1.624e-05         -0.0070
  11       4.694e-02      -6.394e-01      -6.862e-07           0.000           0.000           1.000       1.014e-05         -0.0220
  12       3.972e-02      -6.394e-01      -4.085e-07           0.000           0.001           1.000       3.447e-06         -0.1070
Strip 2
  13       2.392e-01      -6.374e-01       2.643e-09           0.000          -0.000           1.000       8.671e-06         -0.0005
  14       2.347e-01      -6.374e-01       4.756e-09          -0.000          -0.000           1.000       2.551e-05         -0.0008
  15       2.243e-01      -6.374e-01      -3.279e-09           0.000           0.000           1.000       4.086e-05         -0.0011
  16       2.087e-01      -6.374e-01       1.918e-08          -0.000          -0.000           1.000       5.384e-05         -0.0015
  17       1.888e-01      -6.374e-01       3.201e-08           0.000           0.000           1.000       6.369e-05         -0.0019
  18       1.657e-01      -6.374e-01       3.030e-07           0.000           0.000           1.000       6.984e-05         -0.0024
  19       1.409e-01      -6.374e-01       8.730e-07           0.000          -0.000           1.000       7.193e-05         -0.0028
  20       1.156e-01      -6.374e-01      -1.175e-08          -0.000          -0.000           1.000       6.984e-05         -0.0042
  21       9.147e-02      -6.374e-01      -1.529e-06           0.000           0.001           1.000       6.369e-05         -0.0045
  22       6.982e-02      -6.374e-01       1.971e-06          -0.000          -0.001           1.000       5.384e-05         -0.0071
  23       5.193e-02      -6.374e-01      -2.349e-07          -0.000          -0.000           1.000       4.086e-05         -0.0165
  24       3.884e-02      -6.374e-01      -7.150e-07           0.000           0.000           1.000       2.551e-05         -0.0440
  25       3.131e-02      -6.374e-01      -4.256e-07           0.000           0.001           1.000       8.671e-06         -0.1061
Strip 3
  26       2.392e-01      -6.354e-01       2.731e-09           0.000          -0.000           1.000       3.711e-06         -0.0006
  27       2.345e-01      -6.354e-01       4.915e-09          -0.000          -0.000           1.000       1.092e-05         -0.0010
  28       2.238e-01      -6.354e-01      -3.388e-09           0.000           0.000           1.000       1.749e-05         -0.0014
  29       2.077e-01      -6.354e-01       1.982e-08          -0.000          -0.000           1.000       2.305e-05         -0.0019
  30       1.871e-01      -6.354e-01       3.308e-08           0.000           0.000           1.000       2.726e-05         -0.0024
  31       1.633e-01      -6.354e-01       3.131e-07           0.000           0.000           1.000       2.989e-05         -0.0030
  32       1.376e-01      -6.354e-01       9.021e-07           0.000          -0.000           1.000       3.079e-05         -0.0037
  33       1.115e-01      -6.354e-01      -1.214e-08          -0.000          -0.000           1.000       2.989e-05         -0.0054
  34       8.651e-02      -6.354e-01      -1.580e-06           0.000           0.000           1.000       2.726e-05         -0.0062
  35       6.414e-02      -6.354e-01       2.036e-06          -0.000          -0.000           1.000       2.305e-05         -0.0104
  36       4.566e-02      -6.354e-01      -2.427e-07          -0.000          -0.000           1.000       1.749e-05         -0.0225
  37       3.213e-02      -6.354e-01      -7.388e-07           0.000           0.000           1.000       1.092e-05         -0.0441
  38       2.435e-02      -6.354e-01      -4.398e-07           0.000           0.000           1.000       3.711e-06         -0.1224
Strip 4
  39       2.392e-01      -6.334e-01       2.775e-09           0.000          -0.000           1.000       9.103e-06         -0.0007
  40       2.344e-01      -6.334e-01       4.994e-09          -0.000          -0.000           1.000       2.678e-05         -0.0012
  41       2.235e-01      -6.334e-01      -3.443e-09           0.000           0.000           1.000       4.290e-05         -0.0017
  42       2.071e-01      -6.334e-01       2.014e-08          -0.000          -0.000           1.000       5.653e-05         -0.0022
  43       1.862e-01      -6.334e-01       3.361e-08           0.000           0.000           1.000       6.687e-05         -0.0029
  44       1.620e-01      -6.334e-01       3.181e-07           0.000           0.000           1.000       7.333e-05         -0.0036
  45       1.359e-01      -6.334e-01       9.166e-07           0.000          -0.000           1.000       7.552e-05         -0.0044
  46       1.094e-01      -6.334e-01      -1.233e-08          -0.000          -0.000           1.000       7.333e-05         -0.0065
  47       8.405e-02      -6.334e-01      -1.605e-06           0.000           0.000           1.000       6.687e-05         -0.0076
  48       6.132e-02      -6.334e-01       2.069e-06          -0.000          -0.000           1.000       5.653e-05         -0.0130
  49       4.254e-02      -6.334e-01      -2.466e-07          -0.000          -0.000           1.000       4.290e-05         -0.0253
  50       2.879e-02      -6.334e-01      -7.507e-07           0.000           0.000           1.000       2.678e-05         -0.0505
  51       2.089e-02      -6.334e-01      -4.469e-07           0.000           0.000           1.000       9.103e-06         -0.1351
Strip 5
  52       2.392e-01      -6.314e-01       2.815e-09           0.000          -0.000           1.000       3.825e-06         -0.0008
  53       2.343e-01      -6.314e-01       5.066e-09          -0.000          -0.000           1.000       1.125e-05         -0.0013
  54       2.233e-01      -6.314e-01      -3.492e-09           0.000           0.000           1.000       1.803e-05         -0.0019
  55       2.067e-01      -6.314e-01       2.043e-08          -0.000          -0.000           1.000       2.375e-05         -0.0025
  56       1.855e-01      -6.314e-01       3.410e-08           0.000           0.000           1.000       2.810e-05         -0.0033
  57       1.609e-01      -6.314e-01       3.227e-07           0.000           0.000           1.000       3.081e-05         -0.0041
  58       1.344e-01      -6.314e-01       9.299e-07           0.000          -0.000           1.000       3.174e-05         -0.0051
  59       1.075e-01      -6.314e-01      -1.251e-08          -0.000          -0.000           1.000       3.081e-05         -0.0075
  60       8.179e-02      -6.314e-01      -1.629e-06           0.000           0.000           1.000       2.810e-05         -0.0089
  61       5.873e-02      -6.314e-01       2.099e-06          -0.000          -0.000           1.000       2.375e-05         -0.0152
  62       3.968e-02      -6.314e-01      -2.502e-07          -0.000          -0.000           1.000       1.803e-05         -0.0281
  63       2.574e-02      -6.314e-01      -7.615e-07           0.000           0.000           1.000       1.125e-05         -0.0546
  64       1.772e-02      -6.314e-01      -4.534e-07           0.000           0.000           1.000       3.825e-06         -0.1407
Strip 6
  65       2.392e-01      -6.294e-01       2.846e-09           0.000          -0.000           1.000       9.338e-06         -0.0008
  66       2.343e-01      -6.294e-01       5.122e-09          -0.000          -0.000           1.000       2.747e-05         -0.0014
  67       2.231e-01      -6.294e-01      -3.531e-09           0.000           0.000           1.000       4.401e-05         -0.0021
  68       2.063e-01      -6.294e-01       2.065e-08          -0.000          -0.000           1.000       5.799e-05         -0.0028
  69       1.849e-01      -6.294e-01       3.448e-08           0.000           0.000           1.000       6.860e-05         -0.0036
  70       1.600e-01      -6.294e-01       3.263e-07           0.000           0.000           1.000       7.522e-05         -0.0045
  71       1.332e-01      -6.294e-01       9.402e-07           0.000          -0.000           1.000       7.747e-05         -0.0057
  72       1.060e-01      -6.294e-01      -1.265e-08          -0.000          -0.000           1.000       7.522e-05         -0.0084
  73       8.003e-02      -6.294e-01      -1.647e-06           0.000           0.000           1.000       6.860e-05         -0.0101
  74       5.672e-02      -6.294e-01       2.122e-06          -0.000          -0.000           1.000       5.799e-05         -0.0172
  75       3.745e-02      -6.294e-01      -2.530e-07          -0.000          -0.000           1.000       4.401e-05         -0.0306
  76       2.335e-02      -6.294e-01      -7.700e-07           0.000           0.000           1.000       2.747e-05         -0.0585
  77       1.524e-02      -6.294e-01      -4.584e-07           0.000           0.000           1.000       9.338e-06         -0.1466
Strip 7
  78       2.392e-01      -6.277e-01       2.871e-09           0.000          -0.000           1.000       1.785e-06         -0.0009
  79       2.342e-01      -6.277e-01       5.167e-09          -0.000          -0.000           1.000       5.250e-06         -0.0015
  80       2.229e-01      -6.277e-01      -3.562e-09           0.000           0.000           1.000       8.410e-06         -0.0022
  81       2.060e-01      -6.277e-01       2.083e-08          -0.000          -0.000           1.000       1.108e-05         -0.0030
  82       1.844e-01      -6.277e-01       3.477e-08           0.000           0.000           1.000       1.311e-05         -0.0039
  83       1.593e-01      -6.277e-01       3.291e-07           0.000           0.000           1.000       1.438e-05         -0.0048
  84       1.323e-01      -6.277e-01       9.483e-07           0.000          -0.000           1.000       1.481e-05         -0.0061
  85       1.049e-01      -6.277e-01      -1.276e-08          -0.000          -0.000           1.000       1.438e-05         -0.0089
  86       7.865e-02      -6.277e-01      -1.661e-06           0.000           0.000           1.000       1.311e-05         -0.0109
  87       5.513e-02      -6.277e-01       2.141e-06          -0.000          -0.000           1.000       1.108e-05         -0.0184
  88       3.570e-02      -6.277e-01      -2.552e-07          -0.000          -0.000           1.000       8.410e-06         -0.0320
  89       2.148e-02      -6.277e-01      -7.767e-07           0.000           0.000           1.000       5.250e-06         -0.0604
  90       1.330e-02      -6.277e-01      -4.624e-07           0.000           0.000           1.000       1.785e-06         -0.1511
Strip 8
  91       2.392e-01      -6.267e-01       2.880e-09           0.000          -0.000           1.000       4.892e-06         -0.0009
  92       2.342e-01      -6.267e-01       5.184e-09          -0.000          -0.000           1.000       1.439e-05         -0.0016
  93       2.229e-01      -6.267e-01      -3.574e-09           0.000           0.000           1.000       2.305e-05         -0.0023
  94       2.059e-01      -6.267e-01       2.090e-08          -0.000          -0.000           1.000       3.038e-05         -0.0031
  95       1.842e-01      -6.267e-01       3.489e-08           0.000           0.000           1.000       3.593e-05         -0.0041
  96       1.591e-01      -6.267e-01       3.302e-07           0.000           0.000           1.000       3.940e-05         -0.0051
  97       1.320e-01      -6.267e-01       9.514e-07           0.000          -0.000           1.000       4.058e-05         -0.0064
  98       1.044e-01      -6.267e-01      -1.280e-08          -0.000          -0.000           1.000       3.940e-05         -0.0095
  99       7.812e-02      -6.267e-01      -1.666e-06           0.000           0.000           1.000       3.593e-05         -0.0116
 100       5.452e-02      -6.267e-01       2.148e-06          -0.000          -0.000           1.000       3.038e-05         -0.0194
 101       3.503e-02      -6.267e-01      -2.560e-07          -0.000          -0.000           1.000       2.305e-05         -0.0333
 102       2.076e-02      -6.267e-01      -7.792e-07           0.000           0.000           1.000       1.439e-05         -0.0613
 103       1.255e-02      -6.267e-01      -4.639e-07           0.000           0.000           1.000       4.892e-06         -0.1588
Strip 9
 104       2.392e-01      -6.250e-01       2.896e-09           0.000          -0.000           1.000       6.720e-06         -0.0010
 105       2.342e-01      -6.250e-01       5.213e-09          -0.000          -0.000           1.000       1.977e-05         -0.0017
 106       2.228e-01      -6.250e-01      -3.594e-09           0.000           0.000           1.000       3.167e-05         -0.0025
 107       2.057e-01      -6.250e-01       2.102e-08          -0.000          -0.000           1.000       4.173e-05         -0.0033
 108       1.839e-01      -6.250e-01       3.509e-08           0.000           0.000           1.000       4.936e-05         -0.0044
 109       1.586e-01      -6.250e-01       3.320e-07           0.000           0.000           1.000       5.413e-05         -0.0055
 110       1.313e-01      -6.250e-01       9.568e-07           0.000          -0.000           1.000       5.575e-05         -0.0069
 111       1.037e-01      -6.250e-01      -1.288e-08          -0.000          -0.000           1.000       5.413e-05         -0.0101
 112       7.720e-02      -6.250e-01      -1.676e-06           0.000           0.000           1.000       4.936e-05         -0.0125
 113       5.348e-02      -6.250e-01       2.160e-06          -0.000          -0.000           1.000       4.173e-05         -0.0207
 114       3.387e-02      -6.250e-01      -2.575e-07          -0.000          -0.000           1.000       3.167e-05         -0.0348
 115       1.952e-02      -6.250e-01      -7.836e-07           0.000           0.000           1.000       1.977e-05         -0.0634
 116       1.127e-02      -6.250e-01      -4.665e-07           0.000           0.000           1.000       6.720e-06         -0.1655
Strip 10
 117       2.392e-01      -6.239e-01       2.906e-09           0.000          -0.000           1.000       4.595e-07         -0.0010
 118       2.341e-01      -6.239e-01       5.231e-09          -0.000          -0.000           1.000       1.352e-06         -0.0017
 119       2.227e-01      -6.239e-01      -3.606e-09           0.000           0.000           1.000       2.166e-06         -0.0025
 120       2.056e-01      -6.239e-01       2.109e-08          -0.000          -0.000           1.000       2.854e-06         -0.0034
 121       1.837e-01      -6.239e-01       3.521e-08           0.000           0.000           1.000       3.376e-06         -0.0045
 122       1.583e-01      -6.239e-01       3.332e-07           0.000           0.000           1.000       3.702e-06         -0.0056
 123       1.310e-01      -6.239e-01       9.601e-07           0.000          -0.000           1.000       3.812e-06         -0.0071
 124       1.032e-01      -6.239e-01      -1.292e-08          -0.000          -0.000           1.000       3.702e-06         -0.0104
 125       7.664e-02      -6.239e-01      -1.682e-06           0.000           0.000           1.000       3.376e-06         -0.0128
 126       5.283e-02      -6.239e-01       2.167e-06          -0.000          -0.000           1.000       2.854e-06         -0.0212
 127       3.316e-02      -6.239e-01      -2.584e-07          -0.000          -0.000           1.000       2.166e-06         -0.0354
 128       1.876e-02      -6.239e-01      -7.863e-07           0.000           0.000           1.000       1.352e-06         -0.0644
 129       1.048e-02      -6.239e-01      -4.681e-07           0.000           0.000           1.000       4.595e-07         -0.1663
Strip 11
 130       2.392e-01      -6.237e-01       2.909e-09           0.000           0.000           1.000       1.348e-06         -0.0010
 131       2.341e-01      -6.237e-01       5.236e-09          -0.000          -0.000           1.000       3.967e-06         -0.0018
 132       2.227e-01      -6.237e-01      -3.609e-09           0.000           0.000           1.000       6.355e-06         -0.0026
 133       2.056e-01      -6.237e-01       2.111e-08          -0.000          -0.000           1.000       8.373e-06         -0.0035
 134       1.836e-01      -6.237e-01       3.524e-08           0.000           0.000           1.000       9.905e-06         -0.0046
 135       1.583e-01      -6.237e-01       3.335e-07           0.000           0.000           1.000       1.086e-05         -0.0057
 136       1.309e-01      -6.237e-01       9.610e-07           0.000          -0.000           1.000       1.119e-05         -0.0072
 137       1.031e-01      -6.237e-01      -1.293e-08          -0.000          -0.000           1.000       1.086e-05         -0.0106
 138       7.650e-02      -6.237e-01      -1.683e-06           0.000           0.000           1.000       9.905e-06         -0.0131
 139       5.267e-02      -6.237e-01       2.169e-06          -0.000          -0.000           1.000       8.373e-06         -0.0216
 140       3.298e-02      -6.237e-01      -2.586e-07          -0.000          -0.000           1.000       6.355e-06         -0.0359
 141       1.857e-02      -6.237e-01      -7.870e-07           0.000           0.000           1.000       3.967e-06         -0.0653
 142       1.028e-02      -6.237e-01      -4.685e-07           0.000           0.000           1.000       1.348e-06         -0.1672
Strip 12
 143       2.392e-01      -6.231e-01       2.914e-09           0.000          -0.000           1.000       2.149e-06         -0.0010
 144       2.341e-01      -6.231e-01       5.244e-09          -0.000          -0.000           1.000       6.321e-06         -0.0018
 145       2.227e-01      -6.231e-01      -3.615e-09           0.000           0.000           1.000       1.013e-05         -0.0026
 146       2.055e-01      -6.231e-01       2.115e-08          -0.000          -0.000           1.000       1.334e-05         -0.0036
 147       1.835e-01      -6.231e-01       3.530e-08           0.000           0.000           1.000       1.578e-05         -0.0047
 148       1.581e-01      -6.231e-01       3.340e-07           0.000           0.000           1.000       1.731e-05         -0.0059
 149       1.307e-01      -6.231e-01       9.626e-07           0.000          -0.000           1.000       1.783e-05         -0.0074
 150       1.029e-01      -6.231e-01      -1.295e-08          -0.000          -0.000           1.000       1.731e-05         -0.0109
 151       7.622e-02      -6.231e-01      -1.686e-06           0.000           0.000           1.000       1.578e-05         -0.0135
 152       5.236e-02      -6.231e-01       2.173e-06          -0.000          -0.000           1.000       1.334e-05         -0.0221
 153       3.263e-02      -6.231e-01      -2.590e-07          -0.000          -0.000           1.000       1.013e-05         -0.0366
 154       1.820e-02      -6.231e-01      -7.883e-07           0.000           0.000           1.000       6.321e-06         -0.0664
 155       9.895e-03      -6.231e-01      -4.693e-07           0.000           0.000           1.000       2.149e-06         -0.1680
Strip 13
 156       2.392e-01      -6.224e-01       2.921e-09           0.000          -0.000           1.000       2.807e-06         -0.0010
 157       2.341e-01      -6.224e-01       5.257e-09          -0.000          -0.000           1.000       8.257e-06         -0.0018
 158       2.227e-01      -6.224e-01      -3.624e-09           0.000           0.000           1.000       1.323e-05         -0.0027
 159       2.054e-01      -6.224e-01       2.120e-08          -0.000          -0.000           1.000       1.743e-05         -0.0037
 160       1.834e-01      -6.224e-01       3.538e-08           0.000           0.000           1.000       2.062e-05         -0.0048
 161       1.579e-01      -6.224e-01       3.348e-07           0.000           0.000           1.000       2.261e-05         -0.0060
 162       1.304e-01      -6.224e-01       9.648e-07           0.000          -0.000           1.000       2.329e-05         -0.0077
 163       1.025e-01      -6.224e-01      -1.298e-08          -0.000          -0.000           1.000       2.261e-05         -0.0112
 164       7.584e-02      -6.224e-01      -1.690e-06           0.000           0.000           1.000       2.062e-05         -0.0139
 165       5.191e-02      -6.224e-01       2.178e-06          -0.000          -0.000           1.000       1.743e-05         -0.0227
 166       3.214e-02      -6.224e-01      -2.596e-07          -0.000          -0.000           1.000       1.323e-05         -0.0374
 167       1.767e-02      -6.224e-01      -7.902e-07           0.000           0.000           1.000       8.257e-06         -0.0677
 168       9.352e-03      -6.224e-01      -4.704e-07           0.000           0.000           1.000       2.807e-06         -0.1684
Strip 14
 169       2.392e-01      -6.215e-01       2.929e-09           0.000          -0.000           1.000       3.278e-06         -0.0011
 170       2.341e-01      -6.215e-01       5.272e-09          -0.000          -0.000           1.000       9.643e-06         -0.0019
 171       2.226e-01      -6.215e-01      -3.634e-09           0.000           0.000           1.000       1.545e-05         -0.0028
 172       2.053e-01      -6.215e-01       2.126e-08          -0.000          -0.000           1.000       2.036e-05         -0.0038
 173       1.833e-01      -6.215e-01       3.548e-08           0.000           0.000           1.000       2.408e-05         -0.0049
 174       1.577e-01      -6.215e-01       3.358e-07           0.000           0.000           1.000       2.640e-05         -0.0062
 175       1.301e-01      -6.215e-01       9.676e-07           0.000          -0.000           1.000       2.719e-05         -0.0079
 176       1.021e-01      -6.215e-01      -1.302e-08          -0.000          -0.000           1.000       2.640e-05         -0.0116
 177       7.536e-02      -6.215e-01      -1.695e-06           0.000           0.000           1.000       2.408e-05         -0.0144
 178       5.137e-02      -6.215e-01       2.184e-06          -0.000          -0.000           1.000       2.036e-05         -0.0234
 179       3.154e-02      -6.215e-01      -2.604e-07          -0.000          -0.000           1.000       1.545e-05         -0.0383
 180       1.703e-02      -6.215e-01      -7.925e-07           0.000           0.000           1.000       9.643e-06         -0.0692
 181       8.687e-03      -6.215e-01      -4.718e-07           0.000           0.000           1.000       3.278e-06         -0.1684
Strip 15
 182       2.391e-01      -6.205e-01       2.938e-09           0.000          -0.000           1.000       3.529e-06         -0.0011
 183       2.341e-01      -6.205e-01       5.289e-09          -0.000          -0.000           1.000       1.038e-05         -0.0019
 184       2.225e-01      -6.205e-01      -3.646e-09           0.000           0.000           1.000       1.663e-05         -0.0028
 185       2.052e-01      -6.205e-01       2.132e-08          -0.000          -0.000           1.000       2.191e-05         -0.0039
 186       1.831e-01      -6.205e-01       3.560e-08           0.000           0.000           1.000       2.592e-05         -0.0051
 187       1.574e-01      -6.205e-01       3.369e-07           0.000           0.000           1.000       2.843e-05         -0.0064
 188       1.298e-01      -6.205e-01       9.707e-07           0.000          -0.000           1.000       2.928e-05         -0.0082
 189       1.017e-01      -6.205e-01      -1.306e-08          -0.000          -0.000           1.000       2.843e-05         -0.0119
 190       7.484e-02      -6.205e-01      -1.700e-06           0.000           0.000           1.000       2.592e-05         -0.0149
 191       5.076e-02      -6.205e-01       2.191e-06          -0.000          -0.000           1.000       2.191e-05         -0.0241
 192       3.087e-02      -6.205e-01      -2.612e-07          -0.000          -0.000           1.000       1.663e-05         -0.0392
 193       1.632e-02      -6.205e-01      -7.950e-07           0.000           0.000           1.000       1.038e-05         -0.0708
 194       7.945e-03      -6.205e-01      -4.733e-07           0.000           0.000           1.000       3.529e-06         -0.1681
Strip 16
 195       2.391e-01      -6.200e-01       2.943e-09           0.000          -0.000           1.000       1.168e-07         -0.0011
 196       2.341e-01      -6.200e-01       5.298e-09          -0.000          -0.000           1.000       3.437e-07         -0.0019
 197       2.225e-01      -6.200e-01      -3.652e-09           0.000           0.000           1.000       5.507e-07         -0.0029
 198       2.051e-01      -6.200e-01       2.136e-08          -0.000          -0.000           1.000       7.256e-07         -0.0039
 199       1.830e-01      -6.200e-01       3.566e-08           0.000           0.000           1.000       8.583e-07         -0.0051
 200       1.573e-01      -6.200e-01       3.374e-07           0.000           0.000           1.000       9.412e-07         -0.0064
 201       1.296e-01      -6.200e-01       9.724e-07           0.000          -0.000           1.000       9.694e-07         -0.0082
 202       1.015e-01      -6.200e-01      -1.309e-08          -0.000          -0.000           1.000       9.412e-07         -0.0120
 203       7.456e-02      -6.200e-01      -1.703e-06           0.000           0.000           1.000       8.583e-07         -0.0150
 204       5.044e-02      -6.200e-01       2.195e-06          -0.000          -0.000           1.000       7.256e-07         -0.0242
 205       3.052e-02      -6.200e-01      -2.617e-07          -0.000          -0.000           1.000       5.507e-07         -0.0395
 206       1.594e-02      -6.200e-01      -7.963e-07           0.000           0.000           1.000       3.437e-07         -0.0710
 207       7.552e-03      -6.200e-01      -4.741e-07           0.000           0.000           1.000       1.168e-07         -0.1683
Strip 17
 208       2.391e-01      -6.199e-01       2.944e-09           0.000           0.000           1.000       3.486e-07         -0.0011
 209       2.341e-01      -6.199e-01       5.299e-09          -0.000          -0.000           1.000       1.025e-06         -0.0020
 210       2.225e-01      -6.199e-01      -3.653e-09           0.000           0.000           1.000       1.643e-06         -0.0029
 211       2.051e-01      -6.199e-01       2.136e-08          -0.000          -0.000           1.000       2.165e-06         -0.0039
 212       1.830e-01      -6.199e-01       3.566e-08           0.000           0.000           1.000       2.561e-06         -0.0051
 213       1.573e-01      -6.199e-01       3.375e-07           0.000           0.000           1.000       2.808e-06         -0.0065
 214       1.296e-01      -6.199e-01       9.725e-07           0.000          -0.000           1.000       2.892e-06         -0.0083
 215       1.014e-01      -6.199e-01      -1.309e-08          -0.000          -0.000           1.000       2.808e-06         -0.0121
 216       7.453e-02      -6.199e-01      -1.703e-06           0.000           0.000           1.000       2.561e-06         -0.0151
 217       5.042e-02      -6.199e-01       2.195e-06          -0.000          -0.000           1.000       2.165e-06         -0.0244
 218       3.049e-02      -6.199e-01      -2.617e-07          -0.000          -0.000           1.000       1.643e-06         -0.0397
 219       1.591e-02      -6.199e-01      -7.965e-07           0.000           0.000           1.000       1.025e-06         -0.0712
 220       7.519e-03      -6.199e-01      -4.742e-07           0.000           0.000           1.000       3.486e-07         -0.1687
Strip 18
 221       2.391e-01      -6.198e-01       2.945e-09           0.000          -0.000           1.000       5.745e-07         -0.0011
 222       2.341e-01      -6.198e-01       5.300e-09          -0.000          -0.000           1.000       1.690e-06         -0.0020
 223       2.225e-01      -6.198e-01      -3.654e-09           0.000           0.000           1.000       2.708e-06         -0.0029
 224       2.051e-01      -6.198e-01       2.137e-08          -0.000          -0.000           1.000       3.568e-06         -0.0040
 225       1.830e-01      -6.198e-01       3.567e-08           0.000           0.000           1.000       4.220e-06         -0.0052
 226       1.573e-01      -6.198e-01       3.376e-07           0.000           0.000           1.000       4.628e-06         -0.0065
 227       1.295e-01      -6.198e-01       9.728e-07           0.000          -0.000           1.000       4.766e-06         -0.0083
 228       1.014e-01      -6.198e-01      -1.309e-08          -0.000          -0.000           1.000       4.628e-06         -0.0122
 229       7.449e-02      -6.198e-01      -1.704e-06           0.000           0.000           1.000       4.220e-06         -0.0152
 230       5.036e-02      -6.198e-01       2.196e-06          -0.000          -0.000           1.000       3.568e-06         -0.0246
 231       3.043e-02      -6.198e-01      -2.618e-07          -0.000          -0.000           1.000       2.708e-06         -0.0399
 232       1.584e-02      -6.198e-01      -7.967e-07           0.000           0.000           1.000       1.690e-06         -0.0715
 233       7.452e-03      -6.198e-01      -4.743e-07           0.000           0.000           1.000       5.745e-07         -0.1692
Strip 19
 234       2.391e-01      -6.196e-01       2.946e-09           0.000          -0.000           1.000       7.908e-07         -0.0011
 235       2.341e-01      -6.196e-01       5.302e-09          -0.000          -0.000           1.000       2.327e-06         -0.0020
 236       2.225e-01      -6.196e-01      -3.655e-09           0.000           0.000           1.000       3.727e-06         -0.0029
 237       2.051e-01      -6.196e-01       2.138e-08          -0.000          -0.000           1.000       4.911e-06         -0.0040
 238       1.829e-01      -6.196e-01       3.569e-08           0.000           0.000           1.000       5.809e-06         -0.0052
 239       1.572e-01      -6.196e-01       3.377e-07           0.000           0.000           1.000       6.370e-06         -0.0066
 240       1.295e-01      -6.196e-01       9.732e-07           0.000          -0.000           1.000       6.561e-06         -0.0084
 241       1.013e-01      -6.196e-01      -1.310e-08          -0.000          -0.000           1.000       6.370e-06         -0.0123
 242       7.442e-02      -6.196e-01      -1.704e-06           0.000           0.000           1.000       5.809e-06         -0.0154
 243       5.028e-02      -6.196e-01       2.197e-06          -0.000          -0.000           1.000       4.911e-06         -0.0248
 244       3.034e-02      -6.196e-01      -2.619e-07          -0.000          -0.000           1.000       3.727e-06         -0.0401
 245       1.575e-02      -6.196e-01      -7.970e-07           0.000           0.000           1.000       2.327e-06         -0.0717
 246       7.353e-03      -6.196e-01      -4.745e-07           0.000           0.000           1.000       7.908e-07         -0.1700
Strip 20
 247       2.391e-01      -6.193e-01       2.948e-09           0.000          -0.000           1.000       9.939e-07         -0.0011
 248       2.341e-01      -6.193e-01       5.305e-09          -0.000          -0.000           1.000       2.924e-06         -0.0020
 249       2.225e-01      -6.193e-01      -3.657e-09           0.000           0.000           1.000       4.684e-06         -0.0029
 250       2.051e-01      -6.193e-01       2.139e-08          -0.000          -0.000           1.000       6.172e-06         -0.0040
 251       1.829e-01      -6.193e-01       3.571e-08           0.000           0.000           1.000       7.301e-06         -0.0053
 252       1.572e-01      -6.193e-01       3.379e-07           0.000           0.000           1.000       8.006e-06         -0.0067
 253       1.294e-01      -6.193e-01       9.737e-07           0.000          -0.000           1.000       8.246e-06         -0.0085
 254       1.013e-01      -6.193e-01      -1.310e-08          -0.000          -0.000           1.000       8.006e-06         -0.0124
 255       7.432e-02      -6.193e-01      -1.705e-06           0.000           0.000           1.000       7.301e-06         -0.0156
 256       5.018e-02      -6.193e-01       2.198e-06          -0.000          -0.000           1.000       6.172e-06         -0.0250
 257       3.022e-02      -6.193e-01      -2.620e-07          -0.000          -0.000           1.000       4.684e-06         -0.0404
 258       1.562e-02      -6.193e-01      -7.975e-07           0.000           0.000           1.000       2.924e-06         -0.0720
 259       7.224e-03      -6.193e-01      -4.748e-07           0.000           0.000           1.000       9.939e-07         -0.1710
Strip 21
 260       2.391e-01      -6.190e-01       2.950e-09           0.000          -0.000           1.000       1.180e-06         -0.0011
 261       2.341e-01      -6.190e-01       5.309e-09          -0.000          -0.000           1.000       3.473e-06         -0.0020
 262       2.225e-01      -6.190e-01      -3.660e-09           0.000           0.000           1.000       5.563e-06         -0.0030
 263       2.051e-01      -6.190e-01       2.141e-08          -0.000          -0.000           1.000       7.330e-06         -0.0041
 264       1.829e-01      -6.190e-01       3.573e-08           0.000           0.000           1.000       8.671e-06         -0.0053
 265       1.571e-01      -6.190e-01       3.381e-07           0.000           0.000           1.000       9.508e-06         -0.0067
 266       1.293e-01      -6.190e-01       9.744e-07           0.000          -0.000           1.000       9.793e-06         -0.0086
 267       1.012e-01      -6.190e-01      -1.311e-08          -0.000          -0.000           1.000       9.508e-06         -0.0125
 268       7.421e-02      -6.190e-01      -1.707e-06           0.000           0.000           1.000       8.671e-06         -0.0157
 269       5.005e-02      -6.190e-01       2.199e-06          -0.000          -0.000           1.000       7.330e-06         -0.0252
 270       3.008e-02      -6.190e-01      -2.622e-07          -0.000          -0.000           1.000       5.563e-06         -0.0408
 271       1.547e-02      -6.190e-01      -7.980e-07           0.000           0.000           1.000       3.473e-06         -0.0723
 272       7.067e-03      -6.190e-01      -4.751e-07           0.000           0.000           1.000       1.180e-06         -0.1721
Strip 22
 273       2.391e-01      -6.186e-01       2.952e-09           0.000          -0.000           1.000       1.347e-06         -0.0011
 274       2.341e-01      -6.186e-01       5.313e-09          -0.000          -0.000           1.000       3.963e-06         -0.0020
 275       2.225e-01      -6.186e-01      -3.663e-09           0.000           0.000           1.000       6.348e-06         -0.0030
 276       2.050e-01      -6.186e-01       2.142e-08          -0.000          -0.000           1.000       8.365e-06         -0.0041
 277       1.828e-01      -6.186e-01       3.576e-08           0.000           0.000           1.000       9.895e-06         -0.0054
 278       1.570e-01      -6.186e-01       3.384e-07           0.000           0.000           1.000       1.085e-05         -0.0068
 279       1.293e-01      -6.186e-01       9.752e-07           0.000          -0.000           1.000       1.118e-05         -0.0087
 280       1.011e-01      -6.186e-01      -1.312e-08          -0.000          -0.000           1.000       1.085e-05         -0.0127
 281       7.408e-02      -6.186e-01      -1.708e-06           0.000           0.000           1.000       9.895e-06         -0.0159
 282       4.990e-02      -6.186e-01       2.201e-06          -0.000          -0.000           1.000       8.365e-06         -0.0255
 283       2.992e-02      -6.186e-01      -2.624e-07          -0.000          -0.000           1.000       6.348e-06         -0.0411
 284       1.530e-02      -6.186e-01      -7.986e-07           0.000           0.000           1.000       3.963e-06         -0.0726
 285       6.884e-03      -6.186e-01      -4.755e-07           0.000           0.000           1.000       1.347e-06         -0.1733
Strip 23
 286       2.391e-01      -6.182e-01       2.954e-09           0.000          -0.000           1.000       1.491e-06         -0.0012
 287       2.341e-01      -6.182e-01       5.318e-09          -0.000          -0.000           1.000       4.386e-06         -0.0021
 288       2.225e-01      -6.182e-01      -3.666e-09           0.000           0.000           1.000       7.027e-06         -0.0030
 289       2.050e-01      -6.182e-01       2.144e-08          -0.000          -0.000           1.000       9.259e-06         -0.0042
 290       1.828e-01      -6.182e-01       3.579e-08           0.000           0.000           1.000       1.095e-05         -0.0055
 291       1.570e-01      -6.182e-01       3.387e-07           0.000           0.000           1.000       1.201e-05         -0.0069
 292       1.292e-01      -6.182e-01       9.760e-07           0.000          -0.000           1.000       1.237e-05         -0.0088
 293       1.009e-01      -6.182e-01      -1.313e-08          -0.000          -0.000           1.000       1.201e-05         -0.0128
 294       7.394e-02      -6.182e-01      -1.709e-06           0.000           0.000           1.000       1.095e-05         -0.0162
 295       4.973e-02      -6.182e-01       2.203e-06          -0.000          -0.000           1.000       9.259e-06         -0.0258
 296       2.973e-02      -6.182e-01      -2.626e-07          -0.000          -0.000           1.000       7.027e-06         -0.0415
 297       1.510e-02      -6.182e-01      -7.993e-07           0.000           0.000           1.000       4.386e-06         -0.0731
 298       6.679e-03      -6.182e-01      -4.759e-07           0.000           0.000           1.000       1.491e-06         -0.1744
Strip 24
 299       2.391e-01      -6.178e-01       2.957e-09           0.000          -0.000           1.000       1.610e-06         -0.0012
 300       2.340e-01      -6.178e-01       5.323e-09          -0.000          -0.000           1.000       4.736e-06         -0.0021
 301       2.224e-01      -6.178e-01      -3.669e-09           0.000           0.000           1.000       7.587e-06         -0.0031
 302       2.050e-01      -6.178e-01       2.146e-08          -0.000          -0.000           1.000       9.997e-06         -0.0042
 303       1.827e-01      -6.178e-01       3.582e-08           0.000           0.000           1.000       1.183e-05         -0.0055
 304       1.569e-01      -6.178e-01       3.390e-07           0.000           0.000           1.000       1.297e-05         -0.0070
 305       1.291e-01      -6.178e-01       9.770e-07           0.000          -0.000           1.000       1.336e-05         -0.0089
 306       1.008e-01      -6.178e-01      -1.315e-08          -0.000          -0.000           1.000       1.297e-05         -0.0130
 307       7.378e-02      -6.178e-01      -1.711e-06           0.000           0.000           1.000       1.183e-05         -0.0164
 308       4.955e-02      -6.178e-01       2.205e-06          -0.000          -0.000           1.000       9.997e-06         -0.0261
 309       2.953e-02      -6.178e-01      -2.629e-07          -0.000          -0.000           1.000       7.587e-06         -0.0419
 310       1.488e-02      -6.178e-01      -8.001e-07           0.000           0.000           1.000       4.736e-06         -0.0736
 311       6.456e-03      -6.178e-01      -4.763e-07           0.000           0.000           1.000       1.610e-06         -0.1754
Strip 25
 312       2.391e-01      -6.173e-01       2.960e-09           0.000          -0.000           1.000       1.701e-06         -0.0012
 313       2.340e-01      -6.173e-01       5.328e-09          -0.000          -0.000           1.000       5.005e-06         -0.0021
 314       2.224e-01      -6.173e-01      -3.673e-09           0.000           0.000           1.000       8.019e-06         -0.0031
 315       2.049e-01      -6.173e-01       2.148e-08          -0.000          -0.000           1.000       1.057e-05         -0.0043
 316       1.826e-01      -6.173e-01       3.586e-08           0.000           0.000           1.000       1.250e-05         -0.0056
 317       1.568e-01      -6.173e-01       3.394e-07           0.000           0.000           1.000       1.371e-05         -0.0071
 318       1.289e-01      -6.173e-01       9.780e-07           0.000          -0.000           1.000       1.412e-05         -0.0091
 319       1.007e-01      -6.173e-01      -1.316e-08          -0.000          -0.000           1.000       1.371e-05         -0.0132
 320       7.361e-02      -6.173e-01      -1.713e-06           0.000           0.000           1.000       1.250e-05         -0.0166
 321       4.936e-02      -6.173e-01       2.207e-06          -0.000          -0.000           1.000       1.057e-05         -0.0264
 322       2.932e-02      -6.173e-01      -2.632e-07          -0.000          -0.000           1.000       8.019e-06         -0.0423
 323       1.465e-02      -6.173e-01      -8.009e-07           0.000           0.000           1.000       5.005e-06         -0.0742
 324       6.217e-03      -6.173e-01      -4.768e-07           0.000           0.000           1.000       1.701e-06         -0.1763
Strip 26
 325       2.391e-01      -6.168e-01       2.963e-09           0.000          -0.000           1.000       1.764e-06         -0.0012
 326       2.340e-01      -6.168e-01       5.334e-09          -0.000          -0.000           1.000       5.190e-06         -0.0021
 327       2.224e-01      -6.168e-01      -3.677e-09           0.000           0.000           1.000       8.314e-06         -0.0032
 328       2.049e-01      -6.168e-01       2.151e-08          -0.000          -0.000           1.000       1.096e-05         -0.0043
 329       1.826e-01      -6.168e-01       3.590e-08           0.000           0.000           1.000       1.296e-05         -0.0057
 330       1.567e-01      -6.168e-01       3.397e-07           0.000           0.000           1.000       1.421e-05         -0.0072
 331       1.288e-01      -6.168e-01       9.790e-07           0.000          -0.000           1.000       1.464e-05         -0.0092
 332       1.005e-01      -6.168e-01      -1.317e-08          -0.000          -0.000           1.000       1.421e-05         -0.0134
 333       7.343e-02      -6.168e-01      -1.715e-06           0.000           0.000           1.000       1.296e-05         -0.0169
 334       4.915e-02      -6.168e-01       2.210e-06          -0.000          -0.000           1.000       1.096e-05         -0.0267
 335       2.909e-02      -6.168e-01      -2.634e-07          -0.000          -0.000           1.000       8.314e-06         -0.0427
 336       1.441e-02      -6.168e-01      -8.018e-07           0.000           0.000           1.000       5.190e-06         -0.0749
 337       5.968e-03      -6.168e-01      -4.773e-07           0.000           0.000           1.000       1.764e-06         -0.1771
Strip 27
 338       2.391e-01      -6.163e-01       2.967e-09           0.000          -0.000           1.000       1.797e-06         -0.0012
 339       2.340e-01      -6.163e-01       5.340e-09          -0.000          -0.000           1.000       5.286e-06         -0.0022
 340       2.224e-01      -6.163e-01      -3.681e-09           0.000           0.000           1.000       8.468e-06         -0.0032
 341       2.049e-01      -6.163e-01       2.153e-08          -0.000          -0.000           1.000       1.116e-05         -0.0044
 342       1.825e-01      -6.163e-01       3.594e-08           0.000           0.000           1.000       1.320e-05         -0.0058
 343       1.566e-01      -6.163e-01       3.401e-07           0.000           0.000           1.000       1.447e-05         -0.0073
 344       1.287e-01      -6.163e-01       9.801e-07           0.000          -0.000           1.000       1.491e-05         -0.0093
 345       1.004e-01      -6.163e-01      -1.319e-08          -0.000          -0.000           1.000       1.447e-05         -0.0136
 346       7.325e-02      -6.163e-01      -1.717e-06           0.000           0.000           1.000       1.320e-05         -0.0171
 347       4.894e-02      -6.163e-01       2.212e-06          -0.000          -0.000           1.000       1.116e-05         -0.0271
 348       2.886e-02      -6.163e-01      -2.637e-07          -0.000          -0.000           1.000       8.468e-06         -0.0431
 349       1.417e-02      -6.163e-01      -8.026e-07           0.000           0.000           1.000       5.286e-06         -0.0755
 350       5.712e-03      -6.163e-01      -4.778e-07           0.000           0.000           1.000       1.797e-06         -0.1780
Strip 28
 351       2.391e-01      -6.160e-01       2.968e-09           0.000           0.000           1.000       1.178e-07         -0.0012
 352       2.340e-01      -6.160e-01       5.343e-09          -0.000          -0.000           1.000       3.467e-07         -0.0022
 353       2.224e-01      -6.160e-01      -3.683e-09           0.000           0.000           1.000       5.553e-07         -0.0032
 354       2.049e-01      -6.160e-01       2.154e-08          -0.000          -0.000           1.000       7.317e-07         -0.0044
 355       1.825e-01      -6.160e-01       3.596e-08           0.000           0.000           1.000       8.656e-07         -0.0058
 356       1.566e-01      -6.160e-01       3.403e-07           0.000           0.000           1.000       9.492e-07         -0.0073
 357       1.286e-01      -6.160e-01       9.806e-07           0.000          -0.000           1.000       9.776e-07         -0.0094
 358       1.003e-01      -6.160e-01      -1.320e-08          -0.000          -0.000           1.000       9.492e-07         -0.0136
 359       7.315e-02      -6.160e-01      -1.717e-06           0.000           0.000           1.000       8.656e-07         -0.0172
 360       4.884e-02      -6.160e-01       2.213e-06          -0.000          -0.000           1.000       7.317e-07         -0.0272
 361       2.874e-02      -6.160e-01      -2.639e-07          -0.000          -0.000           1.000       5.553e-07         -0.0432
 362       1.404e-02      -6.160e-01      -8.031e-07           0.000           0.000           1.000       3.467e-07         -0.0757
 363       5.578e-03      -6.160e-01      -4.781e-07           0.000           0.000           1.000       1.178e-07         -0.1785
Strip 29
 364       2.391e-01      -6.159e-01       2.969e-09           0.000          -0.000           1.000       3.515e-07         -0.0012
 365       2.340e-01      -6.159e-01       5.343e-09          -0.000          -0.000           1.000       1.034e-06         -0.0022
 366       2.224e-01      -6.159e-01      -3.683e-09           0.000           0.000           1.000       1.657e-06         -0.0032
 367       2.048e-01      -6.159e-01       2.154e-08          -0.000          -0.000           1.000       2.183e-06         -0.0044
 368       1.825e-01      -6.159e-01       3.596e-08           0.000           0.000           1.000       2.582e-06         -0.0058
 369       1.566e-01      -6.159e-01       3.403e-07           0.000           0.000           1.000       2.832e-06         -0.0074
 370       1.286e-01      -6.159e-01       9.807e-07           0.000          -0.000           1.000       2.916e-06         -0.0094
 371       1.003e-01      -6.159e-01      -1.320e-08          -0.000          -0.000           1.000       2.832e-06         -0.0137
 372       7.314e-02      -6.159e-01      -1.718e-06           0.000           0.000           1.000       2.582e-06         -0.0173
 373       4.882e-02      -6.159e-01       2.214e-06          -0.000          -0.000           1.000       2.183e-06         -0.0273
 374       2.873e-02      -6.159e-01      -2.639e-07          -0.000          -0.000           1.000       1.657e-06         -0.0433
 375       1.402e-02      -6.159e-01      -8.032e-07           0.000           0.000           1.000       1.034e-06         -0.0759
 376       5.561e-03      -6.159e-01      -4.781e-07           0.000           0.000           1.000       3.515e-07         -0.1790
Strip 30
 377       2.391e-01      -6.158e-01       2.969e-09           0.000          -0.000           1.000       5.793e-07         -0.0012
 378       2.340e-01      -6.158e-01       5.344e-09          -0.000          -0.000           1.000       1.704e-06         -0.0022
 379       2.224e-01      -6.158e-01      -3.684e-09           0.000           0.000           1.000       2.730e-06         -0.0032
 380       2.048e-01      -6.158e-01       2.155e-08          -0.000          -0.000           1.000       3.597e-06         -0.0044
 381       1.825e-01      -6.158e-01       3.597e-08           0.000           0.000           1.000       4.255e-06         -0.0058
 382       1.566e-01      -6.158e-01       3.404e-07           0.000           0.000           1.000       4.666e-06         -0.0074
 383       1.286e-01      -6.158e-01       9.808e-07           0.000          -0.000           1.000       4.806e-06         -0.0095
 384       1.002e-01      -6.158e-01      -1.320e-08          -0.000          -0.000           1.000       4.666e-06         -0.0138
 385       7.312e-02      -6.158e-01      -1.718e-06           0.000           0.000           1.000       4.255e-06         -0.0174
 386       4.879e-02      -6.158e-01       2.214e-06          -0.000          -0.000           1.000       3.597e-06         -0.0274
 387       2.870e-02      -6.158e-01      -2.639e-07          -0.000          -0.000           1.000       2.730e-06         -0.0435
 388       1.399e-02      -6.158e-01      -8.033e-07           0.000           0.000           1.000       1.704e-06         -0.0760
 389       5.528e-03      -6.158e-01      -4.782e-07           0.000           0.000           1.000       5.793e-07         -0.1798
Strip 31
 390       2.391e-01      -6.156e-01       2.970e-09           0.000          -0.000           1.000       7.972e-07         -0.0012
 391       2.340e-01      -6.156e-01       5.345e-09          -0.000          -0.000           1.000       2.345e-06         -0.0022
 392       2.224e-01      -6.156e-01      -3.685e-09           0.000           0.000           1.000       3.757e-06         -0.0033
 393       2.048e-01      -6.156e-01       2.155e-08          -0.000          -0.000           1.000       4.951e-06         -0.0045
 394       1.825e-01      -6.156e-01       3.597e-08           0.000           0.000           1.000       5.856e-06         -0.0059
 395       1.565e-01      -6.156e-01       3.405e-07           0.000           0.000           1.000       6.422e-06         -0.0074
 396       1.286e-01      -6.156e-01       9.810e-07           0.000          -0.000           1.000       6.614e-06         -0.0095
 397       1.002e-01      -6.156e-01      -1.320e-08          -0.000          -0.000           1.000       6.422e-06         -0.0138
 398       7.308e-02      -6.156e-01      -1.718e-06           0.000           0.000           1.000       5.856e-06         -0.0175
 399       4.875e-02      -6.156e-01       2.214e-06          -0.000          -0.000           1.000       4.951e-06         -0.0275
 400       2.865e-02      -6.156e-01      -2.640e-07          -0.000          -0.000           1.000       3.757e-06         -0.0437
 401       1.394e-02      -6.156e-01      -8.034e-07           0.000           0.000           1.000       2.345e-06         -0.0762
 402       5.479e-03      -6.156e-01      -4.783e-07           0.000           0.000           1.000       7.972e-07         -0.1809
Strip 32
 403       2.391e-01      -6.153e-01       2.970e-09           0.000          -0.000           1.000       1.002e-06         -0.0012
 404       2.340e-01      -6.153e-01       5.346e-09          -0.000          -0.000           1.000       2.947e-06         -0.0022
 405       2.224e-01      -6.153e-01      -3.686e-09           0.000           0.000           1.000       4.721e-06         -0.0033
 406       2.048e-01      -6.153e-01       2.156e-08          -0.000          -0.000           1.000       6.220e-06         -0.0045
 407       1.825e-01      -6.153e-01       3.598e-08           0.000           0.000           1.000       7.358e-06         -0.0059
 408       1.565e-01      -6.153e-01       3.405e-07           0.000           0.000           1.000       8.069e-06         -0.0075
 409       1.286e-01      -6.153e-01       9.813e-07           0.000          -0.000           1.000       8.310e-06         -0.0096
 410       1.002e-01      -6.153e-01      -1.321e-08          -0.000          -0.000           1.000       8.069e-06         -0.0139
 411       7.304e-02      -6.153e-01      -1.719e-06           0.000           0.000           1.000       7.358e-06         -0.0176
 412       4.870e-02      -6.153e-01       2.215e-06          -0.000          -0.000           1.000       6.220e-06         -0.0277
 413       2.859e-02      -6.153e-01      -2.641e-07          -0.000          -0.000           1.000       4.721e-06         -0.0439
 414       1.388e-02      -6.153e-01      -8.037e-07           0.000           0.000           1.000       2.947e-06         -0.0764
 415       5.414e-03      -6.153e-01      -4.784e-07           0.000           0.000           1.000       1.002e-06         -0.1823
Strip 33
 416       2.391e-01      -6.150e-01       2.971e-09           0.000           0.000           1.000       1.189e-06         -0.0012
 417       2.340e-01      -6.150e-01       5.348e-09          -0.000          -0.000           1.000       3.498e-06         -0.0022
 418       2.224e-01      -6.150e-01      -3.687e-09           0.000           0.000           1.000       5.604e-06         -0.0033
 419       2.048e-01      -6.150e-01       2.156e-08          -0.000          -0.000           1.000       7.385e-06         -0.0045
 420       1.824e-01      -6.150e-01       3.600e-08           0.000           0.000           1.000       8.736e-06         -0.0060
 421       1.565e-01      -6.150e-01       3.407e-07           0.000           0.000           1.000       9.579e-06         -0.0076
 422       1.285e-01      -6.150e-01       9.816e-07           0.000          -0.000           1.000       9.866e-06         -0.0097
 423       1.001e-01      -6.150e-01      -1.321e-08          -0.000          -0.000           1.000       9.579e-06         -0.0141
 424       7.298e-02      -6.150e-01      -1.719e-06           0.000           0.000           1.000       8.736e-06         -0.0178
 425       4.864e-02      -6.150e-01       2.216e-06          -0.000          -0.000           1.000       7.385e-06         -0.0279
 426       2.852e-02      -6.150e-01      -2.642e-07          -0.000          -0.000           1.000       5.604e-06         -0.0441
 427       1.380e-02      -6.150e-01      -8.039e-07           0.000           0.000           1.000       3.498e-06         -0.0766
 428       5.335e-03      -6.150e-01      -4.786e-07           0.000           0.000           1.000       1.189e-06         -0.1839
Strip 34
 429       2.391e-01      -6.146e-01       2.973e-09           0.000          -0.000           1.000       1.357e-06         -0.0013
 430       2.340e-01      -6.146e-01       5.350e-09          -0.000          -0.000           1.000       3.991e-06         -0.0022
 431       2.223e-01      -6.146e-01      -3.688e-09           0.000           0.000           1.000       6.393e-06         -0.0033
 432       2.048e-01      -6.146e-01       2.157e-08          -0.000          -0.000           1.000       8.424e-06         -0.0046
 433       1.824e-01      -6.146e-01       3.601e-08           0.000           0.000           1.000       9.965e-06         -0.0060
 434       1.565e-01      -6.146e-01       3.408e-07           0.000           0.000           1.000       1.093e-05         -0.0076
 435       1.285e-01      -6.146e-01       9.820e-07           0.000          -0.000           1.000       1.125e-05         -0.0098
 436       1.001e-01      -6.146e-01      -1.322e-08          -0.000          -0.000           1.000       1.093e-05         -0.0142
 437       7.291e-02      -6.146e-01      -1.720e-06           0.000           0.000           1.000       9.965e-06         -0.0180
 438       4.856e-02      -6.146e-01       2.217e-06          -0.000          -0.000           1.000       8.424e-06         -0.0282
 439       2.844e-02      -6.146e-01      -2.643e-07          -0.000          -0.000           1.000       6.393e-06         -0.0444
 440       1.371e-02      -6.146e-01      -8.043e-07           0.000           0.000           1.000       3.991e-06         -0.0769
 441       5.244e-03      -6.146e-01      -4.788e-07           0.000           0.000           1.000       1.357e-06         -0.1857
Strip 35
 442       2.391e-01      -6.142e-01       2.974e-09           0.000          -0.000           1.000       1.501e-06         -0.0013
 443       2.340e-01      -6.142e-01       5.353e-09          -0.000          -0.000           1.000       4.415e-06         -0.0023
 444       2.223e-01      -6.142e-01      -3.690e-09           0.000           0.000           1.000       7.073e-06         -0.0034
 445       2.048e-01      -6.142e-01       2.158e-08          -0.000          -0.000           1.000       9.320e-06         -0.0046
 446       1.824e-01      -6.142e-01       3.603e-08           0.000           0.000           1.000       1.103e-05         -0.0061
 447       1.564e-01      -6.142e-01       3.409e-07           0.000           0.000           1.000       1.209e-05         -0.0077
 448       1.284e-01      -6.142e-01       9.825e-07           0.000          -0.000           1.000       1.245e-05         -0.0099
 449       1.000e-01      -6.142e-01      -1.322e-08          -0.000          -0.000           1.000       1.209e-05         -0.0144
 450       7.284e-02      -6.142e-01      -1.721e-06           0.000           0.000           1.000       1.103e-05         -0.0182
 451       4.848e-02      -6.142e-01       2.218e-06          -0.000          -0.000           1.000       9.320e-06         -0.0284
 452       2.835e-02      -6.142e-01      -2.644e-07          -0.000          -0.000           1.000       7.073e-06         -0.0447
 453       1.362e-02      -6.142e-01      -8.046e-07           0.000           0.000           1.000       4.415e-06         -0.0772
 454       5.142e-03      -6.142e-01      -4.790e-07           0.000           0.000           1.000       1.501e-06         -0.1876
Strip 36
 455       2.391e-01      -6.138e-01       2.975e-09           0.000          -0.000           1.000       1.620e-06         -0.0013
 456       2.340e-01      -6.138e-01       5.355e-09          -0.000          -0.000           1.000       4.765e-06         -0.0023
 457       2.223e-01      -6.138e-01      -3.692e-09           0.000           0.000           1.000       7.633e-06         -0.0034
 458       2.048e-01      -6.138e-01       2.159e-08          -0.000          -0.000           1.000       1.006e-05         -0.0047
 459       1.824e-01      -6.138e-01       3.604e-08           0.000           0.000           1.000       1.190e-05         -0.0062
 460       1.564e-01      -6.138e-01       3.411e-07           0.000           0.000           1.000       1.305e-05         -0.0078
 461       1.284e-01      -6.138e-01       9.829e-07           0.000          -0.000           1.000       1.344e-05         -0.0101
 462       9.995e-02      -6.138e-01      -1.323e-08          -0.000          -0.000           1.000       1.305e-05         -0.0145
 463       7.276e-02      -6.138e-01      -1.722e-06           0.000           0.000           1.000       1.190e-05         -0.0184
 464       4.839e-02      -6.138e-01       2.219e-06          -0.000          -0.000           1.000       1.006e-05         -0.0287
 465       2.825e-02      -6.138e-01      -2.645e-07          -0.000          -0.000           1.000       7.633e-06         -0.0450
 466       1.351e-02      -6.138e-01      -8.050e-07           0.000           0.000           1.000       4.765e-06         -0.0777
 467       5.030e-03      -6.138e-01      -4.792e-07           0.000           0.000           1.000       1.620e-06         -0.1895
Strip 37
 468       2.391e-01      -6.133e-01       2.977e-09           0.000          -0.000           1.000       1.711e-06         -0.0013
 469       2.340e-01      -6.133e-01       5.358e-09          -0.000          -0.000           1.000       5.033e-06         -0.0023
 470       2.223e-01      -6.133e-01      -3.694e-09           0.000           0.000           1.000       8.063e-06         -0.0034
 471       2.048e-01      -6.133e-01       2.160e-08          -0.000          -0.000           1.000       1.062e-05         -0.0047
 472       1.823e-01      -6.133e-01       3.606e-08           0.000           0.000           1.000       1.257e-05         -0.0062
 473       1.563e-01      -6.133e-01       3.413e-07           0.000           0.000           1.000       1.378e-05         -0.0079
 474       1.283e-01      -6.133e-01       9.834e-07           0.000          -0.000           1.000       1.419e-05         -0.0102
 475       9.988e-02      -6.133e-01      -1.323e-08          -0.000          -0.000           1.000       1.378e-05         -0.0147
 476       7.268e-02      -6.133e-01      -1.722e-06           0.000           0.000           1.000       1.257e-05         -0.0186
 477       4.829e-02      -6.133e-01       2.220e-06          -0.000          -0.000           1.000       1.062e-05         -0.0290
 478       2.814e-02      -6.133e-01      -2.646e-07          -0.000          -0.000           1.000       8.063e-06         -0.0454
 479       1.339e-02      -6.133e-01      -8.054e-07           0.000           0.000           1.000       5.033e-06         -0.0781
 480       4.911e-03      -6.133e-01      -4.795e-07           0.000           0.000           1.000       1.711e-06         -0.1914
Strip 38
 481       2.391e-01      -6.128e-01       2.978e-09           0.000          -0.000           1.000       1.773e-06         -0.0013
 482       2.340e-01      -6.128e-01       5.361e-09          -0.000          -0.000           1.000       5.216e-06         -0.0023
[...]
1281       1.029e-01       6.231e-01      -1.295e-08          -0.000           0.000           1.000       1.731e-05         -0.0109
1282       7.622e-02       6.231e-01      -1.686e-06           0.000          -0.000           1.000       1.578e-05         -0.0135
1283       5.236e-02       6.231e-01       2.173e-06          -0.000           0.000           1.000       1.334e-05         -0.0221
1284       3.263e-02       6.231e-01      -2.590e-07          -0.000           0.000           1.000       1.013e-05         -0.0366
1285       1.820e-02       6.231e-01      -7.883e-07           0.000          -0.000           1.000       6.321e-06         -0.0664
1286       9.895e-03       6.231e-01      -4.693e-07           0.000          -0.000           1.000       2.149e-06         -0.1680
Strip 100
1287       2.392e-01       6.237e-01       2.909e-09           0.000          -0.000           1.000       1.348e-06         -0.0010
1288       2.341e-01       6.237e-01       5.236e-09          -0.000           0.000           1.000       3.967e-06         -0.0018
1289       2.227e-01       6.237e-01      -3.609e-09           0.000          -0.000           1.000       6.355e-06         -0.0026
1290       2.056e-01       6.237e-01       2.111e-08          -0.000           0.000           1.000       8.373e-06         -0.0035
1291       1.836e-01       6.237e-01       3.524e-08           0.000          -0.000           1.000       9.905e-06         -0.0046
1292       1.583e-01       6.237e-01       3.335e-07           0.000          -0.000           1.000       1.086e-05         -0.0057
1293       1.309e-01       6.237e-01       9.610e-07           0.000           0.000           1.000       1.119e-05         -0.0072
1294       1.031e-01       6.237e-01      -1.293e-08          -0.000           0.000           1.000       1.086e-05         -0.0106
1295       7.650e-02       6.237e-01      -1.683e-06           0.000          -0.000           1.000       9.905e-06         -0.0131
1296       5.267e-02       6.237e-01       2.169e-06          -0.000           0.000           1.000       8.373e-06         -0.0216
1297       3.298e-02       6.237e-01      -2.586e-07          -0.000           0.000           1.000       6.355e-06         -0.0359
1298       1.857e-02       6.237e-01      -7.870e-07           0.000          -0.000           1.000       3.967e-06         -0.0653
1299       1.028e-02       6.237e-01      -4.685e-07           0.000          -0.000           1.000       1.348e-06         -0.1672
Strip 101
1300       2.392e-01       6.239e-01       2.906e-09           0.000           0.000           1.000       4.595e-07         -0.0010
1301       2.341e-01       6.239e-01       5.231e-09          -0.000           0.000           1.000       1.352e-06         -0.0017
1302       2.227e-01       6.239e-01      -3.606e-09           0.000          -0.000           1.000       2.166e-06         -0.0025
1303       2.056e-01       6.239e-01       2.109e-08          -0.000           0.000           1.000       2.854e-06         -0.0034
1304       1.837e-01       6.239e-01       3.521e-08           0.000          -0.000           1.000       3.376e-06         -0.0045
1305       1.583e-01       6.239e-01       3.332e-07           0.000          -0.000           1.000       3.702e-06         -0.0056
1306       1.310e-01       6.239e-01       9.601e-07           0.000           0.000           1.000       3.812e-06         -0.0071
1307       1.032e-01       6.239e-01      -1.292e-08          -0.000           0.000           1.000       3.702e-06         -0.0104
1308       7.664e-02       6.239e-01      -1.682e-06           0.000          -0.000           1.000       3.376e-06         -0.0128
1309       5.283e-02       6.239e-01       2.167e-06          -0.000           0.000           1.000       2.854e-06         -0.0212
1310       3.316e-02       6.239e-01      -2.584e-07          -0.000           0.000           1.000       2.166e-06         -0.0354
1311       1.876e-02       6.239e-01      -7.863e-07           0.000          -0.000           1.000       1.352e-06         -0.0644
1312       1.048e-02       6.239e-01      -4.681e-07           0.000          -0.000           1.000       4.595e-07         -0.1663
Strip 102
1313       2.392e-01       6.250e-01       2.896e-09           0.000           0.000           1.000       6.720e-06         -0.0010
1314       2.342e-01       6.250e-01       5.213e-09          -0.000           0.000           1.000       1.977e-05         -0.0017
1315       2.228e-01       6.250e-01      -3.594e-09           0.000          -0.000           1.000       3.167e-05         -0.0025
1316       2.057e-01       6.250e-01       2.102e-08          -0.000           0.000           1.000       4.173e-05         -0.0033
1317       1.839e-01       6.250e-01       3.509e-08           0.000          -0.000           1.000       4.936e-05         -0.0044
1318       1.586e-01       6.250e-01       3.320e-07           0.000          -0.000           1.000       5.413e-05         -0.0055
1319       1.313e-01       6.250e-01       9.568e-07           0.000           0.000           1.000       5.575e-05         -0.0069
1320       1.037e-01       6.250e-01      -1.288e-08          -0.000           0.000           1.000       5.413e-05         -0.0101
1321       7.720e-02       6.250e-01      -1.676e-06           0.000          -0.000           1.000       4.936e-05         -0.0125
1322       5.348e-02       6.250e-01       2.160e-06          -0.000           0.000           1.000       4.173e-05         -0.0207
1323       3.387e-02       6.250e-01      -2.575e-07          -0.000           0.000           1.000       3.167e-05         -0.0348
1324       1.952e-02       6.250e-01      -7.836e-07           0.000          -0.000           1.000       1.977e-05         -0.0634
1325       1.127e-02       6.250e-01      -4.665e-07           0.000          -0.000           1.000       6.720e-06         -0.1655
Strip 103
1326       2.392e-01       6.267e-01       2.880e-09           0.000           0.000           1.000       4.892e-06         -0.0009
1327       2.342e-01       6.267e-01       5.184e-09          -0.000           0.000           1.000       1.439e-05         -0.0016
1328       2.229e-01       6.267e-01      -3.574e-09           0.000          -0.000           1.000       2.305e-05         -0.0023
1329       2.059e-01       6.267e-01       2.090e-08          -0.000           0.000           1.000       3.038e-05         -0.0031
1330       1.842e-01       6.267e-01       3.489e-08           0.000          -0.000           1.000       3.593e-05         -0.0041
1331       1.591e-01       6.267e-01       3.302e-07           0.000          -0.000           1.000       3.940e-05         -0.0051
1332       1.320e-01       6.267e-01       9.514e-07           0.000           0.000           1.000       4.058e-05         -0.0064
1333       1.044e-01       6.267e-01      -1.280e-08          -0.000           0.000           1.000       3.940e-05         -0.0095
1334       7.812e-02       6.267e-01      -1.666e-06           0.000          -0.000           1.000       3.593e-05         -0.0116
1335       5.452e-02       6.267e-01       2.148e-06          -0.000           0.000           1.000       3.038e-05         -0.0194
1336       3.503e-02       6.267e-01      -2.560e-07          -0.000           0.000           1.000       2.305e-05         -0.0333
1337       2.076e-02       6.267e-01      -7.792e-07           0.000          -0.000           1.000       1.439e-05         -0.0613
1338       1.255e-02       6.267e-01      -4.639e-07           0.000          -0.000           1.000       4.892e-06         -0.1588
Strip 104
1339       2.392e-01       6.277e-01       2.871e-09           0.000           0.000           1.000       1.785e-06         -0.0009
1340       2.342e-01       6.277e-01       5.167e-09          -0.000           0.000           1.000       5.250e-06         -0.0015
1341       2.229e-01       6.277e-01      -3.562e-09           0.000          -0.000           1.000       8.410e-06         -0.0022
1342       2.060e-01       6.277e-01       2.083e-08          -0.000           0.000           1.000       1.108e-05         -0.0030
1343       1.844e-01       6.277e-01       3.477e-08           0.000          -0.000           1.000       1.311e-05         -0.0039
1344       1.593e-01       6.277e-01       3.291e-07           0.000          -0.000           1.000       1.438e-05         -0.0048
1345       1.323e-01       6.277e-01       9.483e-07           0.000           0.000           1.000       1.481e-05         -0.0061
1346       1.049e-01       6.277e-01      -1.276e-08          -0.000           0.000           1.000       1.438e-05         -0.0089
1347       7.865e-02       6.277e-01      -1.661e-06           0.000          -0.000           1.000       1.311e-05         -0.0109
1348       5.513e-02       6.277e-01       2.141e-06          -0.000           0.000           1.000       1.108e-05         -0.0184
1349       3.570e-02       6.277e-01      -2.552e-07          -0.000           0.000           1.000       8.410e-06         -0.0320
1350       2.148e-02       6.277e-01      -7.767e-07           0.000          -0.000           1.000       5.250e-06         -0.0604
1351       1.330e-02       6.277e-01      -4.624e-07           0.000          -0.000           1.000       1.785e-06         -0.1511
Strip 105
1352       2.392e-01       6.294e-01       2.846e-09           0.000           0.000           1.000       9.338e-06         -0.0008
1353       2.343e-01       6.294e-01       5.122e-09          -0.000           0.000           1.000       2.747e-05         -0.0014
1354       2.231e-01       6.294e-01      -3.531e-09           0.000          -0.000           1.000       4.401e-05         -0.0021
1355       2.063e-01       6.294e-01       2.065e-08          -0.000           0.000           1.000       5.799e-05         -0.0028
1356       1.849e-01       6.294e-01       3.448e-08           0.000          -0.000           1.000       6.860e-05         -0.0036
1357       1.600e-01       6.294e-01       3.263e-07           0.000          -0.000           1.000       7.522e-05         -0.0045
1358       1.332e-01       6.294e-01       9.402e-07           0.000           0.000           1.000       7.747e-05         -0.0057
1359       1.060e-01       6.294e-01      -1.265e-08          -0.000           0.000           1.000       7.522e-05         -0.0084
1360       8.003e-02       6.294e-01      -1.647e-06           0.000          -0.000           1.000       6.860e-05         -0.0101
1361       5.672e-02       6.294e-01       2.122e-06          -0.000           0.000           1.000       5.799e-05         -0.0172
1362       3.745e-02       6.294e-01      -2.530e-07          -0.000           0.000           1.000       4.401e-05         -0.0306
1363       2.335e-02       6.294e-01      -7.700e-07           0.000          -0.000           1.000       2.747e-05         -0.0585
1364       1.524e-02       6.294e-01      -4.584e-07           0.000          -0.000           1.000       9.338e-06         -0.1466
Strip 106
1365       2.392e-01       6.314e-01       2.815e-09           0.000           0.000           1.000       3.825e-06         -0.0008
1366       2.343e-01       6.314e-01       5.066e-09          -0.000           0.000           1.000       1.125e-05         -0.0013
1367       2.233e-01       6.314e-01      -3.492e-09           0.000          -0.000           1.000       1.803e-05         -0.0019
1368       2.067e-01       6.314e-01       2.043e-08          -0.000           0.000           1.000       2.375e-05         -0.0025
1369       1.855e-01       6.314e-01       3.410e-08           0.000          -0.000           1.000       2.810e-05         -0.0033
1370       1.609e-01       6.314e-01       3.227e-07           0.000          -0.000           1.000       3.081e-05         -0.0041
1371       1.344e-01       6.314e-01       9.299e-07           0.000           0.000           1.000       3.174e-05         -0.0051
1372       1.075e-01       6.314e-01      -1.251e-08          -0.000           0.000           1.000       3.081e-05         -0.0075
1373       8.179e-02       6.314e-01      -1.629e-06           0.000          -0.000           1.000       2.810e-05         -0.0089
1374       5.873e-02       6.314e-01       2.099e-06          -0.000           0.000           1.000       2.375e-05         -0.0152
1375       3.968e-02       6.314e-01      -2.502e-07          -0.000           0.000           1.000       1.803e-05         -0.0281
1376       2.574e-02       6.314e-01      -7.615e-07           0.000          -0.000           1.000       1.125e-05         -0.0546
1377       1.772e-02       6.314e-01      -4.534e-07           0.000          -0.000           1.000       3.825e-06         -0.1407
Strip 107
1378       2.392e-01       6.334e-01       2.775e-09           0.000           0.000           1.000       9.103e-06         -0.0007
1379       2.344e-01       6.334e-01       4.994e-09          -0.000           0.000           1.000       2.678e-05         -0.0012
1380       2.235e-01       6.334e-01      -3.443e-09           0.000          -0.000           1.000       4.290e-05         -0.0017
1381       2.071e-01       6.334e-01       2.014e-08          -0.000           0.000           1.000       5.653e-05         -0.0022
1382       1.862e-01       6.334e-01       3.361e-08           0.000          -0.000           1.000       6.687e-05         -0.0029
1383       1.620e-01       6.334e-01       3.181e-07           0.000          -0.000           1.000       7.333e-05         -0.0036
1384       1.359e-01       6.334e-01       9.166e-07           0.000           0.000           1.000       7.552e-05         -0.0044
1385       1.094e-01       6.334e-01      -1.233e-08          -0.000           0.000           1.000       7.333e-05         -0.0065
1386       8.405e-02       6.334e-01      -1.605e-06           0.000          -0.000           1.000       6.687e-05         -0.0076
1387       6.132e-02       6.334e-01       2.069e-06          -0.000           0.000           1.000       5.653e-05         -0.0130
1388       4.254e-02       6.334e-01      -2.466e-07          -0.000           0.000           1.000       4.290e-05         -0.0253
1389       2.879e-02       6.334e-01      -7.507e-07           0.000          -0.000           1.000       2.678e-05         -0.0505
1390       2.089e-02       6.334e-01      -4.469e-07           0.000          -0.000           1.000       9.103e-06         -0.1351
Strip 108
1391       2.392e-01       6.354e-01       2.731e-09           0.000           0.000           1.000       3.711e-06         -0.0006
1392       2.345e-01       6.354e-01       4.915e-09          -0.000           0.000           1.000       1.092e-05         -0.0010
1393       2.238e-01       6.354e-01      -3.388e-09           0.000          -0.000           1.000       1.749e-05         -0.0014
1394       2.077e-01       6.354e-01       1.982e-08          -0.000           0.000           1.000       2.305e-05         -0.0019
1395       1.871e-01       6.354e-01       3.308e-08           0.000          -0.000           1.000       2.726e-05         -0.0024
1396       1.633e-01       6.354e-01       3.131e-07           0.000          -0.000           1.000       2.989e-05         -0.0030
1397       1.376e-01       6.354e-01       9.021e-07           0.000           0.000           1.000       3.079e-05         -0.0037
1398       1.115e-01       6.354e-01      -1.214e-08          -0.000           0.000           1.000       2.989e-05         -0.0054
1399       8.651e-02       6.354e-01      -1.580e-06           0.000          -0.000           1.000       2.726e-05         -0.0062
1400       6.414e-02       6.354e-01       2.036e-06          -0.000           0.000           1.000       2.305e-05         -0.0104
1401       4.566e-02       6.354e-01      -2.427e-07          -0.000           0.000           1.000       1.749e-05         -0.0225
1402       3.213e-02       6.354e-01      -7.388e-07           0.000          -0.000           1.000       1.092e-05         -0.0441
1403       2.435e-02       6.354e-01      -4.398e-07           0.000          -0.000           1.000       3.711e-06         -0.1224
Strip 109
1404       2.392e-01       6.374e-01       2.643e-09           0.000           0.000           1.000       8.671e-06         -0.0005
1405       2.347e-01       6.374e-01       4.756e-09          -0.000           0.000           1.000       2.551e-05         -0.0008
1406       2.243e-01       6.374e-01      -3.279e-09           0.000          -0.000           1.000       4.086e-05         -0.0011
1407       2.087e-01       6.374e-01       1.918e-08          -0.000           0.000           1.000       5.384e-05         -0.0015
1408       1.888e-01       6.374e-01       3.201e-08           0.000          -0.000           1.000       6.369e-05         -0.0019
1409       1.657e-01       6.374e-01       3.030e-07           0.000          -0.000           1.000       6.984e-05         -0.0024
1410       1.409e-01       6.374e-01       8.730e-07           0.000           0.000           1.000       7.193e-05         -0.0028
1411       1.156e-01       6.374e-01      -1.175e-08          -0.000           0.000           1.000       6.984e-05         -0.0042
1412       9.147e-02       6.374e-01      -1.529e-06           0.000          -0.001           1.000       6.369e-05         -0.0045
1413       6.982e-02       6.374e-01       1.971e-06          -0.000           0.001           1.000       5.384e-05         -0.0071
1414       5.193e-02       6.374e-01      -2.349e-07          -0.000           0.000           1.000       4.086e-05         -0.0165
1415       3.884e-02       6.374e-01      -7.150e-07           0.000          -0.000           1.000       2.551e-05         -0.0440
1416       3.131e-02       6.374e-01      -4.256e-07           0.000          -0.001           1.000       8.671e-06         -0.1061
Strip 110
1417       2.393e-01       6.394e-01       2.536e-09           0.000           0.000           1.000       3.447e-06         -0.0003
1418       2.349e-01       6.394e-01       4.565e-09          -0.000           0.000           1.000       1.014e-05         -0.0005
1419       2.249e-01       6.394e-01      -3.147e-09           0.000          -0.000           1.000       1.624e-05         -0.0007
1420       2.100e-01       6.394e-01       1.841e-08          -0.000           0.000           1.000       2.140e-05         -0.0009
1421       1.909e-01       6.394e-01       3.072e-08           0.000          -0.000           1.000       2.532e-05         -0.0012
1422       1.687e-01       6.394e-01       2.907e-07           0.000          -0.000           1.000       2.776e-05         -0.0014
1423       1.449e-01       6.394e-01       8.378e-07           0.000           0.000           1.000       2.860e-05         -0.0017
1424       1.206e-01       6.394e-01      -1.127e-08          -0.000           0.000           1.000       2.776e-05         -0.0024
1425       9.745e-02       6.394e-01      -1.467e-06           0.000          -0.001           1.000       2.532e-05         -0.0026
1426       7.667e-02       6.394e-01       1.891e-06          -0.000           0.001           1.000       2.140e-05         -0.0038
1427       5.951e-02       6.394e-01      -2.255e-07          -0.000           0.000           1.000       1.624e-05         -0.0070
1428       4.694e-02       6.394e-01      -6.862e-07           0.000          -0.000           1.000       1.014e-05         -0.0220
1429       3.972e-02       6.394e-01      -4.085e-07           0.000          -0.001           1.000       3.447e-06         -0.1070










