xflr5 v6.50

Plane Name
T1-44.0 m/s-VLM1
QInf  =   44.000000 m/s
Alpha =    5.000000
Beta  =    0.000°
Phi   =    0.000°
Ctrl  =    0.000
CL    =    0.372665
Cy    =    0.000000
Cd    =    0.014665     ICd   =    0.007517     PCd   =    0.007148
Cl   = -3.81858e-16
Cm   =  -0.0898784
ICn   =   -0.000000     PCn   =   -0.000000 
XCP   =    0.057878     YCP   =    0.000000     ZCP   =   -0.000000  
XNP   =    0.000000
Bending =   11.869270

Main Wing
  y-span        Chord      Ai         Cl        PCd          ICd        CmGeom    CmAirf@chord/4    XTrtop    XTrBot      XCP       BM
   -0.6394     0.2025    -1.950    0.045062    0.007370    0.001532   -0.015598    0.004307     0.6693    0.6888    0.1545    0.0000
   -0.6374     0.2110    -1.935    0.072065    0.007266    0.002435   -0.022183    0.005991     0.6610    0.6921    0.1669    0.0000
   -0.6354     0.2180    -1.923    0.087535    0.007193    0.002938   -0.024547    0.006386     0.6557    0.6935    0.1771    0.0002
   -0.6334     0.2215    -1.911    0.101827    0.007159    0.003397   -0.027272    0.006886     0.6517    0.6957    0.1824    0.0003
   -0.6314     0.2247    -1.900    0.112956    0.007123    0.003746   -0.029030    0.007083     0.6484    0.6972    0.1873    0.0007
   -0.6294     0.2272    -1.889    0.123326    0.007094    0.004067   -0.030705    0.007246     0.6456    0.6989    0.1912    0.0011
   -0.6277     0.2292    -1.880    0.129745    0.007072    0.004258   -0.031451    0.007288     0.6438    0.6998    0.1938    0.0016
   -0.6267     0.2300    -1.875    0.135732    0.007066    0.004443   -0.032678    0.007369     0.6423    0.7010    0.1957    0.0019
   -0.6250     0.2313    -1.866    0.143120    0.007055    0.004662   -0.033942    0.007431     0.6405    0.7023    0.1981    0.0025
   -0.6239     0.2321    -1.860    0.145646    0.007047    0.004721   -0.034188    0.007420     0.6397    0.7026    0.1991    0.0030
   -0.6237     0.2323    -1.859    0.148072    0.007047    0.004805   -0.034713    0.007424     0.6392    0.7031    0.1999    0.0031
   -0.6231     0.2326    -1.856    0.150935    0.007044    0.004891   -0.035265    0.007419     0.6385    0.7037    0.2008    0.0034
   -0.6224     0.2332    -1.852    0.154238    0.007041    0.004988   -0.035835    0.007402     0.6376    0.7043    0.2020    0.0037
   -0.6215     0.2339    -1.848    0.157847    0.007036    0.005092   -0.036406    0.007370     0.6367    0.7049    0.2033    0.0042
   -0.6205     0.2346    -1.843    0.161469    0.007030    0.005195   -0.036917    0.007326     0.6357    0.7055    0.2046    0.0048
   -0.6200     0.2350    -1.840    0.161800    0.007026    0.005078   -0.036882    0.007310     0.6355    0.7054    0.2050    0.0051
   -0.6199     0.2350    -1.840    0.163064    0.007027    0.005233   -0.037084    0.007306     0.6352    0.7057    0.2052    0.0051
   -0.6198     0.2351    -1.839    0.164064    0.007027    0.005266   -0.037301    0.007301     0.6350    0.7059    0.2055    0.0052
   -0.6196     0.2352    -1.838    0.165173    0.007027    0.005299   -0.037532    0.007296     0.6347    0.7061    0.2058    0.0054
   -0.6193     0.2353    -1.837    0.166430    0.007027    0.005336   -0.037782    0.007290     0.6344    0.7064    0.2062    0.0055
   -0.6190     0.2355    -1.835    0.167840    0.007026    0.005377   -0.038052    0.007283     0.6341    0.7067    0.2066    0.0057
   -0.6186     0.2357    -1.833    0.169396    0.007026    0.005421   -0.038343    0.007275     0.6337    0.7070    0.2071    0.0060
   -0.6182     0.2359    -1.831    0.171080    0.007025    0.005469   -0.038651    0.007265     0.6333    0.7073    0.2075    0.0063
   -0.6178     0.2361    -1.829    0.172868    0.007022    0.005519   -0.038971    0.007253     0.6327    0.7077    0.2080    0.0066
   -0.6173     0.2364    -1.826    0.174730    0.007020    0.005571   -0.039298    0.007240     0.6322    0.7081    0.2086    0.0069
   -0.6168     0.2366    -1.824    0.176629    0.007017    0.005624   -0.039624    0.007226     0.6316    0.7085    0.2091    0.0073
   -0.6163     0.2369    -1.821    0.178488    0.007014    0.005675   -0.039930    0.007213     0.6310    0.7088    0.2096    0.0077
   -0.6160     0.2370    -1.820    0.178956    0.007013    0.005613   -0.040003    0.007209     0.6308    0.7089    0.2098    0.0080
   -0.6159     0.2370    -1.820    0.179706    0.007012    0.005708   -0.040144    0.007209     0.6306    0.7091    0.2099    0.0080
   -0.6158     0.2371    -1.819    0.180470    0.007012    0.005731   -0.040315    0.007208     0.6304    0.7093    0.2101    0.0081
   -0.6156     0.2371    -1.818    0.181403    0.007011    0.005757   -0.040519    0.007209     0.6301    0.7095    0.2103    0.0083
   -0.6153     0.2372    -1.817    0.182524    0.007011    0.005789   -0.040761    0.007210     0.6298    0.7098    0.2105    0.0085
   -0.6150     0.2372    -1.815    0.183833    0.007010    0.005825   -0.041039    0.007211     0.6294    0.7101    0.2108    0.0088
   -0.6146     0.2373    -1.813    0.185317    0.007009    0.005866   -0.041353    0.007213     0.6290    0.7104    0.2111    0.0091
   -0.6142     0.2374    -1.811    0.186956    0.007008    0.005911   -0.041697    0.007214     0.6285    0.7108    0.2114    0.0095
   -0.6138     0.2376    -1.809    0.188730    0.007006    0.005960   -0.042067    0.007215     0.6280    0.7112    0.2118    0.0099
   -0.6133     0.2377    -1.806    0.190612    0.007005    0.006011   -0.042460    0.007214     0.6274    0.7116    0.2122    0.0103
   -0.6128     0.2378    -1.804    0.192573    0.007004    0.006065   -0.042868    0.007212     0.6269    0.7121    0.2126    0.0108
   -0.6123     0.2379    -1.801    0.194567    0.007002    0.006119   -0.043281    0.007208     0.6263    0.7126    0.2130    0.0113
   -0.6119     0.2380    -1.800    0.195887    0.007001    0.006153   -0.043562    0.007204     0.6259    0.7129    0.2132    0.0117
   -0.6117     0.2381    -1.798    0.197192    0.007000    0.006191   -0.043842    0.007201     0.6255    0.7132    0.2135    0.0119
   -0.6111     0.2382    -1.796    0.199242    0.006999    0.006247   -0.044269    0.007194     0.6249    0.7136    0.2139    0.0125
   -0.6104     0.2384    -1.792    0.202009    0.006997    0.006321   -0.044837    0.007181     0.6241    0.7143    0.2145    0.0133
   -0.6095     0.2386    -1.788    0.205374    0.006994    0.006410   -0.045526    0.007161     0.6231    0.7151    0.2151    0.0143
   -0.6085     0.2389    -1.783    0.209168    0.006992    0.006510   -0.046303    0.007134     0.6220    0.7159    0.2159    0.0155
   -0.6077     0.2391    -1.779    0.212602    0.006990    0.006603   -0.047029    0.007107     0.6210    0.7168    0.2166    0.0165
   -0.6067     0.2393    -1.774    0.216467    0.006988    0.006704   -0.047815    0.007074     0.6199    0.7177    0.2173    0.0178
   -0.6050     0.2397    -1.765    0.222881    0.006984    0.006869   -0.049086    0.007019     0.6180    0.7192    0.2185    0.0202
   -0.6037     0.2400    -1.759    0.228385    0.006982    0.007013   -0.050238    0.007011     0.6163    0.7205    0.2193    0.0221
   -0.6027     0.2400    -1.754    0.234025    0.006985    0.007165   -0.051630    0.007028     0.6143    0.7220    0.2200    0.0236
   -0.6010     0.2400    -1.745    0.243884    0.006989    0.007428   -0.054040    0.007084     0.6109    0.7245    0.2210    0.0264
   -0.5772     0.2400    -1.660    0.264604    0.006997    0.007667   -0.059101    0.007203     0.6036    0.7299    0.2228    0.0687
   -0.4893     0.2400    -1.407    0.339853    0.007082    0.008348   -0.079699    0.005419     0.5710    0.7494    0.2341    0.5267
   -0.3269     0.2400    -1.123    0.398215    0.007157    0.007805   -0.096748    0.002961     0.5471    0.7655    0.2426    3.4154
   -0.1148     0.2400    -0.968    0.424345    0.007222    0.007171   -0.104334    0.001909     0.5333    0.7729    0.2455   11.8693
    0.1148     0.2400    -0.968    0.424345    0.007222    0.007171   -0.104334    0.001909     0.5333    0.7729    0.2455   11.8693
    0.3269     0.2400    -1.123    0.398215    0.007157    0.007805   -0.096748    0.002961     0.5471    0.7655    0.2426    3.4154
    0.4893     0.2400    -1.407    0.339853    0.007082    0.008348   -0.079699    0.005419     0.5710    0.7494    0.2341    0.5267
    0.5772     0.2400    -1.660    0.264604    0.006997    0.007667   -0.059101    0.007203     0.6036    0.7299    0.2228    0.0687
    0.6010     0.2400    -1.745    0.243884    0.006989    0.007428   -0.054040    0.007084     0.6109    0.7245    0.2210    0.0264
    0.6027     0.2400    -1.754    0.234025    0.006985    0.007165   -0.051630    0.007028     0.6143    0.7220    0.2200    0.0236
    0.6037     0.2400    -1.759    0.228385    0.006982    0.007013   -0.050238    0.007011     0.6163    0.7205    0.2193    0.0221
    0.6050     0.2397    -1.765    0.222881    0.006984    0.006869   -0.049086    0.007019     0.6180    0.7192    0.2185    0.0202
    0.6067     0.2393    -1.774    0.216467    0.006988    0.006704   -0.047815    0.007074     0.6199    0.7177    0.2173    0.0178
    0.6077     0.2391    -1.779    0.212602    0.006990    0.006603   -0.047029    0.007107     0.6210    0.7168    0.2166    0.0165
    0.6085     0.2389    -1.783    0.209168    0.006992    0.006510   -0.046303    0.007134     0.6220    0.7159    0.2159    0.0155
    0.6095     0.2386    -1.788    0.205374    0.006994    0.006410   -0.045526    0.007161     0.6231    0.7151    0.2151    0.0143
    0.6104     0.2384    -1.792    0.202009    0.006997    0.006321   -0.044837    0.007181     0.6241    0.7143    0.2145    0.0133
    0.6111     0.2382    -1.796    0.199242    0.006999    0.006247   -0.044269    0.007194     0.6249    0.7136    0.2139    0.0125
    0.6117     0.2381    -1.798    0.197192    0.007000    0.006191   -0.043842    0.007201     0.6255    0.7132    0.2135    0.0119
    0.6119     0.2380    -1.800    0.195887    0.007001    0.006153   -0.043562    0.007204     0.6259    0.7129    0.2132    0.0117
    0.6123     0.2379    -1.801    0.194567    0.007002    0.006119   -0.043281    0.007208     0.6263    0.7126    0.2130    0.0113
    0.6128     0.2378    -1.804    0.192573    0.007004    0.006065   -0.042868    0.007212     0.6269    0.7121    0.2126    0.0108
    0.6133     0.2377    -1.806    0.190612    0.007005    0.006011   -0.042460    0.007214     0.6274    0.7116    0.2122    0.0103
    0.6138     0.2376    -1.809    0.188730    0.007006    0.005960   -0.042067    0.007215     0.6280    0.7112    0.2118    0.0099
    0.6142     0.2374    -1.811    0.186956    0.007008    0.005911   -0.041697    0.007214     0.6285    0.7108    0.2114    0.0095
    0.6146     0.2373    -1.813    0.185317    0.007009    0.005866   -0.041353    0.007213     0.6290    0.7104    0.2111    0.0091
    0.6150     0.2372    -1.815    0.183833    0.007010    0.005825   -0.041039    0.007211     0.6294    0.7101    0.2108    0.0088
    0.6153     0.2372    -1.817    0.182524    0.007011    0.005789   -0.040761    0.007210     0.6298    0.7098    0.2105    0.0085
    0.6156     0.2371    -1.818    0.181403    0.007011    0.005757   -0.040519    0.007209     0.6301    0.7095    0.2103    0.0083
    0.6158     0.2371    -1.819    0.180470    0.007012    0.005731   -0.040315    0.007208     0.6304    0.7093    0.2101    0.0081
    0.6159     0.2370    -1.820    0.179706    0.007012    0.005708   -0.040144    0.007209     0.6306    0.7091    0.2099    0.0080
    0.6160     0.2370    -1.820    0.178956    0.007013    0.005613   -0.040003    0.007209     0.6308    0.7089    0.2098    0.0080
    0.6163     0.2369    -1.821    0.178488    0.007014    0.005675   -0.039930    0.007213     0.6310    0.7088    0.2096    0.0077
    0.6168     0.2366    -1.824    0.176629    0.007017    0.005624   -0.039624    0.007226     0.6316    0.7085    0.2091    0.0073
    0.6173     0.2364    -1.826    0.174730    0.007020    0.005571   -0.039298    0.007240     0.6322    0.7081    0.2086    0.0069
    0.6178     0.2361    -1.829    0.172868    0.007022    0.005519   -0.038971    0.007253     0.6327    0.7077    0.2080    0.0066
    0.6182     0.2359    -1.831    0.171080    0.007025    0.005469   -0.038651    0.007265     0.6333    0.7073    0.2075    0.0063
    0.6186     0.2357    -1.833    0.169396    0.007026    0.005421   -0.038343    0.007275     0.6337    0.7070    0.2071    0.0060
    0.6190     0.2355    -1.835    0.167840    0.007026    0.005377   -0.038052    0.007283     0.6341    0.7067    0.2066    0.0057
    0.6193     0.2353    -1.837    0.166430    0.007027    0.005336   -0.037782    0.007290     0.6344    0.7064    0.2062    0.0055
    0.6196     0.2352    -1.838    0.165173    0.007027    0.005299   -0.037532    0.007296     0.6347    0.7061    0.2058    0.0054
    0.6198     0.2351    -1.839    0.164064    0.007027    0.005266   -0.037301    0.007301     0.6350    0.7059    0.2055    0.0052
    0.6199     0.2350    -1.840    0.163064    0.007027    0.005233   -0.037084    0.007306     0.6352    0.7057    0.2052    0.0051
    0.6200     0.2350    -1.840    0.161800    0.007026    0.005078   -0.036882    0.007310     0.6355    0.7054    0.2050    0.0051
    0.6205     0.2346    -1.843    0.161469    0.007030    0.005195   -0.036917    0.007326     0.6357    0.7055    0.2046    0.0048
    0.6215     0.2339    -1.848    0.157847    0.007036    0.005092   -0.036406    0.007370     0.6367    0.7049    0.2033    0.0042
    0.6224     0.2332    -1.852    0.154238    0.007041    0.004988   -0.035835    0.007402     0.6376    0.7043    0.2020    0.0037
    0.6231     0.2326    -1.856    0.150935    0.007044    0.004891   -0.035265    0.007419     0.6385    0.7037    0.2008    0.0034
    0.6237     0.2323    -1.859    0.148072    0.007047    0.004805   -0.034713    0.007424     0.6392    0.7031    0.1999    0.0031
    0.6239     0.2321    -1.860    0.145646    0.007047    0.004721   -0.034188    0.007420     0.6397    0.7026    0.1991    0.0030
    0.6250     0.2313    -1.866    0.143120    0.007055    0.004662   -0.033942    0.007431     0.6405    0.7023    0.1981    0.0025
    0.6267     0.2300    -1.875    0.135732    0.007066    0.004443   -0.032678    0.007369     0.6423    0.7010    0.1957    0.0019
    0.6277     0.2292    -1.880    0.129745    0.007072    0.004258   -0.031451    0.007288     0.6438    0.6998    0.1938    0.0016
    0.6294     0.2272    -1.889    0.123326    0.007094    0.004067   -0.030705    0.007246     0.6456    0.6989    0.1912    0.0011
    0.6314     0.2247    -1.900    0.112956    0.007123    0.003746   -0.029030    0.007083     0.6484    0.6972    0.1873    0.0007
    0.6334     0.2215    -1.911    0.101827    0.007159    0.003397   -0.027272    0.006886     0.6517    0.6957    0.1824    0.0003
    0.6354     0.2180    -1.923    0.087535    0.007193    0.002938   -0.024547    0.006386     0.6557    0.6935    0.1771    0.0002
    0.6374     0.2110    -1.935    0.072065    0.007266    0.002435   -0.022183    0.005991     0.6610    0.6921    0.1669    0.0000
    0.6394     0.2025    -1.950    0.045062    0.007370    0.001532   -0.015598    0.004307     0.6693    0.6888    0.1545    0.0000


Main Wing Cp Coefficients
 Panel     CtrlPt.x        CtrlPt.y        CtrlPt.z       Nx      Ny       Nz        Area       Cp
Main WingCp Coefficients
Strip 1
   0       2.393e-01      -6.394e-01       2.536e-09           0.000          -0.000           1.000       3.447e-06          0.0033
   1       2.349e-01      -6.394e-01       4.565e-09          -0.000          -0.000           1.000       1.014e-05          0.0049
   2       2.249e-01      -6.394e-01      -3.147e-09           0.000           0.000           1.000       1.624e-05          0.0069
   3       2.100e-01      -6.394e-01       1.841e-08          -0.000          -0.000           1.000       2.140e-05          0.0090
   4       1.909e-01      -6.394e-01       3.072e-08           0.000           0.000           1.000       2.532e-05          0.0115
   5       1.687e-01      -6.394e-01       2.907e-07           0.000           0.000           1.000       2.776e-05          0.0145
   6       1.449e-01      -6.394e-01       8.378e-07           0.000          -0.000           1.000       2.860e-05          0.0179
   7       1.206e-01      -6.394e-01      -1.127e-08          -0.000          -0.000           1.000       2.776e-05          0.0216
   8       9.745e-02      -6.394e-01      -1.467e-06           0.000           0.001           1.000       2.532e-05          0.0275
   9       7.667e-02      -6.394e-01       1.891e-06          -0.000          -0.001           1.000       2.140e-05          0.0381
  10       5.951e-02      -6.394e-01      -2.255e-07          -0.000          -0.000           1.000       1.624e-05          0.0696
  11       4.694e-02      -6.394e-01      -6.862e-07           0.000           0.000           1.000       1.014e-05          0.2178
  12       3.972e-02      -6.394e-01      -4.085e-07           0.000           0.001           1.000       3.447e-06          1.0649
Strip 2
  13       2.392e-01      -6.374e-01       2.643e-09           0.000          -0.000           1.000       8.671e-06          0.0051
  14       2.347e-01      -6.374e-01       4.756e-09          -0.000          -0.000           1.000       2.551e-05          0.0080
  15       2.243e-01      -6.374e-01      -3.279e-09           0.000           0.000           1.000       4.086e-05          0.0112
  16       2.087e-01      -6.374e-01       1.918e-08          -0.000          -0.000           1.000       5.384e-05          0.0148
  17       1.888e-01      -6.374e-01       3.201e-08           0.000           0.000           1.000       6.369e-05          0.0190
  18       1.657e-01      -6.374e-01       3.030e-07           0.000           0.000           1.000       6.984e-05          0.0240
  19       1.409e-01      -6.374e-01       8.730e-07           0.000          -0.000           1.000       7.193e-05          0.0301
  20       1.156e-01      -6.374e-01      -1.175e-08          -0.000          -0.000           1.000       6.984e-05          0.0370
  21       9.147e-02      -6.374e-01      -1.529e-06           0.000           0.001           1.000       6.369e-05          0.0484
  22       6.982e-02      -6.374e-01       1.971e-06          -0.000          -0.001           1.000       5.384e-05          0.0710
  23       5.193e-02      -6.374e-01      -2.349e-07          -0.000          -0.000           1.000       4.086e-05          0.1630
  24       3.884e-02      -6.374e-01      -7.150e-07           0.000           0.000           1.000       2.551e-05          0.4371
  25       3.131e-02      -6.374e-01      -4.256e-07           0.000           0.001           1.000       8.671e-06          1.0564
Strip 3
  26       2.392e-01      -6.354e-01       2.731e-09           0.000          -0.000           1.000       3.711e-06          0.0062
  27       2.345e-01      -6.354e-01       4.915e-09          -0.000          -0.000           1.000       1.092e-05          0.0099
  28       2.238e-01      -6.354e-01      -3.388e-09           0.000           0.000           1.000       1.749e-05          0.0140
  29       2.077e-01      -6.354e-01       1.982e-08          -0.000          -0.000           1.000       2.305e-05          0.0185
  30       1.871e-01      -6.354e-01       3.308e-08           0.000           0.000           1.000       2.726e-05          0.0238
  31       1.633e-01      -6.354e-01       3.131e-07           0.000           0.000           1.000       2.989e-05          0.0303
  32       1.376e-01      -6.354e-01       9.021e-07           0.000          -0.000           1.000       3.079e-05          0.0385
  33       1.115e-01      -6.354e-01      -1.214e-08          -0.000          -0.000           1.000       2.989e-05          0.0484
  34       8.651e-02      -6.354e-01      -1.580e-06           0.000           0.000           1.000       2.726e-05          0.0657
  35       6.414e-02      -6.354e-01       2.036e-06          -0.000          -0.000           1.000       2.305e-05          0.1034
  36       4.566e-02      -6.354e-01      -2.427e-07          -0.000          -0.000           1.000       1.749e-05          0.2226
  37       3.213e-02      -6.354e-01      -7.388e-07           0.000           0.000           1.000       1.092e-05          0.4374
  38       2.435e-02      -6.354e-01      -4.398e-07           0.000           0.000           1.000       3.711e-06          1.2207
Strip 4
  39       2.392e-01      -6.334e-01       2.775e-09           0.000          -0.000           1.000       9.103e-06          0.0071
  40       2.344e-01      -6.334e-01       4.994e-09          -0.000          -0.000           1.000       2.678e-05          0.0116
  41       2.235e-01      -6.334e-01      -3.443e-09           0.000           0.000           1.000       4.290e-05          0.0165
  42       2.071e-01      -6.334e-01       2.014e-08          -0.000          -0.000           1.000       5.653e-05          0.0220
  43       1.862e-01      -6.334e-01       3.361e-08           0.000           0.000           1.000       6.687e-05          0.0284
  44       1.620e-01      -6.334e-01       3.181e-07           0.000           0.000           1.000       7.333e-05          0.0363
  45       1.359e-01      -6.334e-01       9.166e-07           0.000          -0.000           1.000       7.552e-05          0.0463
  46       1.094e-01      -6.334e-01      -1.233e-08          -0.000          -0.000           1.000       7.333e-05          0.0589
  47       8.405e-02      -6.334e-01      -1.605e-06           0.000           0.000           1.000       6.687e-05          0.0810
  48       6.132e-02      -6.334e-01       2.069e-06          -0.000          -0.000           1.000       5.653e-05          0.1288
  49       4.254e-02      -6.334e-01      -2.466e-07          -0.000          -0.000           1.000       4.290e-05          0.2503
  50       2.879e-02      -6.334e-01      -7.507e-07           0.000           0.000           1.000       2.678e-05          0.5004
  51       2.089e-02      -6.334e-01      -4.469e-07           0.000           0.000           1.000       9.103e-06          1.3479
Strip 5
  52       2.392e-01      -6.314e-01       2.815e-09           0.000          -0.000           1.000       3.825e-06          0.0078
  53       2.343e-01      -6.314e-01       5.066e-09          -0.000          -0.000           1.000       1.125e-05          0.0130
  54       2.233e-01      -6.314e-01      -3.492e-09           0.000           0.000           1.000       1.803e-05          0.0186
  55       2.067e-01      -6.314e-01       2.043e-08          -0.000          -0.000           1.000       2.375e-05          0.0249
  56       1.855e-01      -6.314e-01       3.410e-08           0.000           0.000           1.000       2.810e-05          0.0322
  57       1.609e-01      -6.314e-01       3.227e-07           0.000           0.000           1.000       3.081e-05          0.0413
  58       1.344e-01      -6.314e-01       9.299e-07           0.000          -0.000           1.000       3.174e-05          0.0529
  59       1.075e-01      -6.314e-01      -1.251e-08          -0.000          -0.000           1.000       3.081e-05          0.0677
  60       8.179e-02      -6.314e-01      -1.629e-06           0.000           0.000           1.000       2.810e-05          0.0941
  61       5.873e-02      -6.314e-01       2.099e-06          -0.000          -0.000           1.000       2.375e-05          0.1503
  62       3.968e-02      -6.314e-01      -2.502e-07          -0.000          -0.000           1.000       1.803e-05          0.2780
  63       2.574e-02      -6.314e-01      -7.615e-07           0.000           0.000           1.000       1.125e-05          0.5419
  64       1.772e-02      -6.314e-01      -4.534e-07           0.000           0.000           1.000       3.825e-06          1.4050
Strip 6
  65       2.392e-01      -6.294e-01       2.846e-09           0.000          -0.000           1.000       9.338e-06          0.0085
  66       2.343e-01      -6.294e-01       5.122e-09          -0.000          -0.000           1.000       2.747e-05          0.0143
  67       2.231e-01      -6.294e-01      -3.531e-09           0.000           0.000           1.000       4.401e-05          0.0206
  68       2.063e-01      -6.294e-01       2.065e-08          -0.000          -0.000           1.000       5.799e-05          0.0276
  69       1.849e-01      -6.294e-01       3.448e-08           0.000           0.000           1.000       6.860e-05          0.0358
  70       1.600e-01      -6.294e-01       3.263e-07           0.000           0.000           1.000       7.522e-05          0.0460
  71       1.332e-01      -6.294e-01       9.402e-07           0.000          -0.000           1.000       7.747e-05          0.0591
  72       1.060e-01      -6.294e-01      -1.265e-08          -0.000          -0.000           1.000       7.522e-05          0.0761
  73       8.003e-02      -6.294e-01      -1.647e-06           0.000           0.000           1.000       6.860e-05          0.1066
  74       5.672e-02      -6.294e-01       2.122e-06          -0.000          -0.000           1.000       5.799e-05          0.1699
  75       3.745e-02      -6.294e-01      -2.530e-07          -0.000          -0.000           1.000       4.401e-05          0.3021
  76       2.335e-02      -6.294e-01      -7.700e-07           0.000           0.000           1.000       2.747e-05          0.5803
  77       1.524e-02      -6.294e-01      -4.584e-07           0.000           0.000           1.000       9.338e-06          1.4636
Strip 7
  78       2.392e-01      -6.277e-01       2.871e-09           0.000          -0.000           1.000       1.785e-06          0.0089
  79       2.342e-01      -6.277e-01       5.167e-09          -0.000          -0.000           1.000       5.250e-06          0.0151
  80       2.229e-01      -6.277e-01      -3.562e-09           0.000           0.000           1.000       8.410e-06          0.0219
  81       2.060e-01      -6.277e-01       2.083e-08          -0.000          -0.000           1.000       1.108e-05          0.0294
  82       1.844e-01      -6.277e-01       3.477e-08           0.000           0.000           1.000       1.311e-05          0.0381
  83       1.593e-01      -6.277e-01       3.291e-07           0.000           0.000           1.000       1.438e-05          0.0491
  84       1.323e-01      -6.277e-01       9.483e-07           0.000          -0.000           1.000       1.481e-05          0.0632
  85       1.049e-01      -6.277e-01      -1.276e-08          -0.000          -0.000           1.000       1.438e-05          0.0817
  86       7.865e-02      -6.277e-01      -1.661e-06           0.000           0.000           1.000       1.311e-05          0.1149
  87       5.513e-02      -6.277e-01       2.141e-06          -0.000          -0.000           1.000       1.108e-05          0.1817
  88       3.570e-02      -6.277e-01      -2.552e-07          -0.000          -0.000           1.000       8.410e-06          0.3167
  89       2.148e-02      -6.277e-01      -7.767e-07           0.000           0.000           1.000       5.250e-06          0.5987
  90       1.330e-02      -6.277e-01      -4.624e-07           0.000           0.000           1.000       1.785e-06          1.5085
Strip 8
  91       2.392e-01      -6.267e-01       2.880e-09           0.000          -0.000           1.000       4.892e-06          0.0093
  92       2.342e-01      -6.267e-01       5.184e-09          -0.000          -0.000           1.000       1.439e-05          0.0158
  93       2.229e-01      -6.267e-01      -3.574e-09           0.000           0.000           1.000       2.305e-05          0.0230
  94       2.059e-01      -6.267e-01       2.090e-08          -0.000          -0.000           1.000       3.038e-05          0.0310
  95       1.842e-01      -6.267e-01       3.489e-08           0.000           0.000           1.000       3.593e-05          0.0403
  96       1.591e-01      -6.267e-01       3.302e-07           0.000           0.000           1.000       3.940e-05          0.0519
  97       1.320e-01      -6.267e-01       9.514e-07           0.000          -0.000           1.000       4.058e-05          0.0669
  98       1.044e-01      -6.267e-01      -1.280e-08          -0.000          -0.000           1.000       3.940e-05          0.0868
  99       7.812e-02      -6.267e-01      -1.666e-06           0.000           0.000           1.000       3.593e-05          0.1224
 100       5.452e-02      -6.267e-01       2.148e-06          -0.000          -0.000           1.000       3.038e-05          0.1921
 101       3.503e-02      -6.267e-01      -2.560e-07          -0.000          -0.000           1.000       2.305e-05          0.3290
 102       2.076e-02      -6.267e-01      -7.792e-07           0.000           0.000           1.000       1.439e-05          0.6080
 103       1.255e-02      -6.267e-01      -4.639e-07           0.000           0.000           1.000       4.892e-06          1.5860
Strip 9
 104       2.392e-01      -6.250e-01       2.896e-09           0.000          -0.000           1.000       6.720e-06          0.0098
 105       2.342e-01      -6.250e-01       5.213e-09          -0.000          -0.000           1.000       1.977e-05          0.0168
 106       2.228e-01      -6.250e-01      -3.594e-09           0.000           0.000           1.000       3.167e-05          0.0245
 107       2.057e-01      -6.250e-01       2.102e-08          -0.000          -0.000           1.000       4.173e-05          0.0330
 108       1.839e-01      -6.250e-01       3.509e-08           0.000           0.000           1.000       4.936e-05          0.0430
 109       1.586e-01      -6.250e-01       3.320e-07           0.000           0.000           1.000       5.413e-05          0.0555
 110       1.313e-01      -6.250e-01       9.568e-07           0.000          -0.000           1.000       5.575e-05          0.0717
 111       1.037e-01      -6.250e-01      -1.288e-08          -0.000          -0.000           1.000       5.413e-05          0.0933
 112       7.720e-02      -6.250e-01      -1.676e-06           0.000           0.000           1.000       4.936e-05          0.1318
 113       5.348e-02      -6.250e-01       2.160e-06          -0.000          -0.000           1.000       4.173e-05          0.2049
 114       3.387e-02      -6.250e-01      -2.575e-07          -0.000          -0.000           1.000       3.167e-05          0.3436
 115       1.952e-02      -6.250e-01      -7.836e-07           0.000           0.000           1.000       1.977e-05          0.6290
 116       1.127e-02      -6.250e-01      -4.665e-07           0.000           0.000           1.000       6.720e-06          1.6528
Strip 10
 117       2.392e-01      -6.239e-01       2.906e-09           0.000          -0.000           1.000       4.595e-07          0.0100
 118       2.341e-01      -6.239e-01       5.231e-09          -0.000          -0.000           1.000       1.352e-06          0.0171
 119       2.227e-01      -6.239e-01      -3.606e-09           0.000           0.000           1.000       2.166e-06          0.0250
 120       2.056e-01      -6.239e-01       2.109e-08          -0.000          -0.000           1.000       2.854e-06          0.0338
 121       1.837e-01      -6.239e-01       3.521e-08           0.000           0.000           1.000       3.376e-06          0.0440
 122       1.583e-01      -6.239e-01       3.332e-07           0.000           0.000           1.000       3.702e-06          0.0568
 123       1.310e-01      -6.239e-01       9.601e-07           0.000          -0.000           1.000       3.812e-06          0.0734
 124       1.032e-01      -6.239e-01      -1.292e-08          -0.000          -0.000           1.000       3.702e-06          0.0957
 125       7.664e-02      -6.239e-01      -1.682e-06           0.000           0.000           1.000       3.376e-06          0.1353
 126       5.283e-02      -6.239e-01       2.167e-06          -0.000          -0.000           1.000       2.854e-06          0.2096
 127       3.316e-02      -6.239e-01      -2.584e-07          -0.000          -0.000           1.000       2.166e-06          0.3496
 128       1.876e-02      -6.239e-01      -7.863e-07           0.000           0.000           1.000       1.352e-06          0.6387
 129       1.048e-02      -6.239e-01      -4.681e-07           0.000           0.000           1.000       4.595e-07          1.6610
Strip 11
 130       2.392e-01      -6.237e-01       2.909e-09           0.000           0.000           1.000       1.348e-06          0.0101
 131       2.341e-01      -6.237e-01       5.236e-09          -0.000          -0.000           1.000       3.967e-06          0.0174
 132       2.227e-01      -6.237e-01      -3.609e-09           0.000           0.000           1.000       6.355e-06          0.0255
 133       2.056e-01      -6.237e-01       2.111e-08          -0.000          -0.000           1.000       8.373e-06          0.0344
 134       1.836e-01      -6.237e-01       3.524e-08           0.000           0.000           1.000       9.905e-06          0.0449
 135       1.583e-01      -6.237e-01       3.335e-07           0.000           0.000           1.000       1.086e-05          0.0580
 136       1.309e-01      -6.237e-01       9.610e-07           0.000          -0.000           1.000       1.119e-05          0.0750
 137       1.031e-01      -6.237e-01      -1.293e-08          -0.000          -0.000           1.000       1.086e-05          0.0978
 138       7.650e-02      -6.237e-01      -1.683e-06           0.000           0.000           1.000       9.905e-06          0.1383
 139       5.267e-02      -6.237e-01       2.169e-06          -0.000          -0.000           1.000       8.373e-06          0.2137
 140       3.298e-02      -6.237e-01      -2.586e-07          -0.000          -0.000           1.000       6.355e-06          0.3549
 141       1.857e-02      -6.237e-01      -7.870e-07           0.000           0.000           1.000       3.967e-06          0.6476
 142       1.028e-02      -6.237e-01      -4.685e-07           0.000           0.000           1.000       1.348e-06          1.6698
Strip 12
 143       2.392e-01      -6.231e-01       2.914e-09           0.000          -0.000           1.000       2.149e-06          0.0103
 144       2.341e-01      -6.231e-01       5.244e-09          -0.000          -0.000           1.000       6.321e-06          0.0178
 145       2.227e-01      -6.231e-01      -3.615e-09           0.000           0.000           1.000       1.013e-05          0.0261
 146       2.055e-01      -6.231e-01       2.115e-08          -0.000          -0.000           1.000       1.334e-05          0.0352
 147       1.835e-01      -6.231e-01       3.530e-08           0.000           0.000           1.000       1.578e-05          0.0460
 148       1.581e-01      -6.231e-01       3.340e-07           0.000           0.000           1.000       1.731e-05          0.0594
 149       1.307e-01      -6.231e-01       9.626e-07           0.000          -0.000           1.000       1.783e-05          0.0769
 150       1.029e-01      -6.231e-01      -1.295e-08          -0.000          -0.000           1.000       1.731e-05          0.1004
 151       7.622e-02      -6.231e-01      -1.686e-06           0.000           0.000           1.000       1.578e-05          0.1420
 152       5.236e-02      -6.231e-01       2.173e-06          -0.000          -0.000           1.000       1.334e-05          0.2188
 153       3.263e-02      -6.231e-01      -2.590e-07          -0.000          -0.000           1.000       1.013e-05          0.3616
 154       1.820e-02      -6.231e-01      -7.883e-07           0.000           0.000           1.000       6.321e-06          0.6587
 155       9.895e-03      -6.231e-01      -4.693e-07           0.000           0.000           1.000       2.149e-06          1.6778
Strip 13
 156       2.392e-01      -6.224e-01       2.921e-09           0.000          -0.000           1.000       2.807e-06          0.0106
 157       2.341e-01      -6.224e-01       5.257e-09          -0.000          -0.000           1.000       8.257e-06          0.0182
 158       2.227e-01      -6.224e-01      -3.624e-09           0.000           0.000           1.000       1.323e-05          0.0268
 159       2.054e-01      -6.224e-01       2.120e-08          -0.000          -0.000           1.000       1.743e-05          0.0362
 160       1.834e-01      -6.224e-01       3.538e-08           0.000           0.000           1.000       2.062e-05          0.0472
 161       1.579e-01      -6.224e-01       3.348e-07           0.000           0.000           1.000       2.261e-05          0.0611
 162       1.304e-01      -6.224e-01       9.648e-07           0.000          -0.000           1.000       2.329e-05          0.0791
 163       1.025e-01      -6.224e-01      -1.298e-08          -0.000          -0.000           1.000       2.261e-05          0.1035
 164       7.584e-02      -6.224e-01      -1.690e-06           0.000           0.000           1.000       2.062e-05          0.1464
 165       5.191e-02      -6.224e-01       2.178e-06          -0.000          -0.000           1.000       1.743e-05          0.2248
 166       3.214e-02      -6.224e-01      -2.596e-07          -0.000          -0.000           1.000       1.323e-05          0.3697
 167       1.767e-02      -6.224e-01      -7.902e-07           0.000           0.000           1.000       8.257e-06          0.6718
 168       9.352e-03      -6.224e-01      -4.704e-07           0.000           0.000           1.000       2.807e-06          1.6824
Strip 14
 169       2.392e-01      -6.215e-01       2.929e-09           0.000          -0.000           1.000       3.278e-06          0.0108
 170       2.341e-01      -6.215e-01       5.272e-09          -0.000          -0.000           1.000       9.643e-06          0.0187
 171       2.226e-01      -6.215e-01      -3.634e-09           0.000           0.000           1.000       1.545e-05          0.0275
 172       2.053e-01      -6.215e-01       2.126e-08          -0.000          -0.000           1.000       2.036e-05          0.0372
 173       1.833e-01      -6.215e-01       3.548e-08           0.000           0.000           1.000       2.408e-05          0.0486
 174       1.577e-01      -6.215e-01       3.358e-07           0.000           0.000           1.000       2.640e-05          0.0629
 175       1.301e-01      -6.215e-01       9.676e-07           0.000          -0.000           1.000       2.719e-05          0.0816
 176       1.021e-01      -6.215e-01      -1.302e-08          -0.000          -0.000           1.000       2.640e-05          0.1068
 177       7.536e-02      -6.215e-01      -1.695e-06           0.000           0.000           1.000       2.408e-05          0.1513
 178       5.137e-02      -6.215e-01       2.184e-06          -0.000          -0.000           1.000       2.036e-05          0.2315
 179       3.154e-02      -6.215e-01      -2.604e-07          -0.000          -0.000           1.000       1.545e-05          0.3788
 180       1.703e-02      -6.215e-01      -7.925e-07           0.000           0.000           1.000       9.643e-06          0.6868
 181       8.687e-03      -6.215e-01      -4.718e-07           0.000           0.000           1.000       3.278e-06          1.6820
Strip 15
 182       2.391e-01      -6.205e-01       2.938e-09           0.000          -0.000           1.000       3.529e-06          0.0111
 183       2.341e-01      -6.205e-01       5.289e-09          -0.000          -0.000           1.000       1.038e-05          0.0191
 184       2.225e-01      -6.205e-01      -3.646e-09           0.000           0.000           1.000       1.663e-05          0.0282
 185       2.052e-01      -6.205e-01       2.132e-08          -0.000          -0.000           1.000       2.191e-05          0.0383
 186       1.831e-01      -6.205e-01       3.560e-08           0.000           0.000           1.000       2.592e-05          0.0501
 187       1.574e-01      -6.205e-01       3.369e-07           0.000           0.000           1.000       2.843e-05          0.0648
 188       1.298e-01      -6.205e-01       9.707e-07           0.000          -0.000           1.000       2.928e-05          0.0841
 189       1.017e-01      -6.205e-01      -1.306e-08          -0.000          -0.000           1.000       2.843e-05          0.1103
 190       7.484e-02      -6.205e-01      -1.700e-06           0.000           0.000           1.000       2.592e-05          0.1562
 191       5.076e-02      -6.205e-01       2.191e-06          -0.000          -0.000           1.000       2.191e-05          0.2382
 192       3.087e-02      -6.205e-01      -2.612e-07          -0.000          -0.000           1.000       1.663e-05          0.3882
 193       1.632e-02      -6.205e-01      -7.950e-07           0.000           0.000           1.000       1.038e-05          0.7019
 194       7.945e-03      -6.205e-01      -4.733e-07           0.000           0.000           1.000       3.529e-06          1.6790
Strip 16
 195       2.391e-01      -6.200e-01       2.943e-09           0.000          -0.000           1.000       1.168e-07          0.0111
 196       2.341e-01      -6.200e-01       5.298e-09          -0.000          -0.000           1.000       3.437e-07          0.0192
 197       2.225e-01      -6.200e-01      -3.652e-09           0.000           0.000           1.000       5.507e-07          0.0284
 198       2.051e-01      -6.200e-01       2.136e-08          -0.000          -0.000           1.000       7.256e-07          0.0385
 199       1.830e-01      -6.200e-01       3.566e-08           0.000           0.000           1.000       8.583e-07          0.0504
 200       1.573e-01      -6.200e-01       3.374e-07           0.000           0.000           1.000       9.412e-07          0.0653
 201       1.296e-01      -6.200e-01       9.724e-07           0.000          -0.000           1.000       9.694e-07          0.0847
 202       1.015e-01      -6.200e-01      -1.309e-08          -0.000          -0.000           1.000       9.412e-07          0.1111
 203       7.456e-02      -6.200e-01      -1.703e-06           0.000           0.000           1.000       8.583e-07          0.1574
 204       5.044e-02      -6.200e-01       2.195e-06          -0.000          -0.000           1.000       7.256e-07          0.2398
 205       3.052e-02      -6.200e-01      -2.617e-07          -0.000          -0.000           1.000       5.507e-07          0.3902
 206       1.594e-02      -6.200e-01      -7.963e-07           0.000           0.000           1.000       3.437e-07          0.7042
 207       7.552e-03      -6.200e-01      -4.741e-07           0.000           0.000           1.000       1.168e-07          1.6810
Strip 17
 208       2.391e-01      -6.199e-01       2.944e-09           0.000           0.000           1.000       3.486e-07          0.0112
 209       2.341e-01      -6.199e-01       5.299e-09          -0.000          -0.000           1.000       1.025e-06          0.0193
 210       2.225e-01      -6.199e-01      -3.653e-09           0.000           0.000           1.000       1.643e-06          0.0286
 211       2.051e-01      -6.199e-01       2.136e-08          -0.000          -0.000           1.000       2.165e-06          0.0388
 212       1.830e-01      -6.199e-01       3.566e-08           0.000           0.000           1.000       2.561e-06          0.0507
 213       1.573e-01      -6.199e-01       3.375e-07           0.000           0.000           1.000       2.808e-06          0.0657
 214       1.296e-01      -6.199e-01       9.725e-07           0.000          -0.000           1.000       2.892e-06          0.0853
 215       1.014e-01      -6.199e-01      -1.309e-08          -0.000          -0.000           1.000       2.808e-06          0.1119
 216       7.453e-02      -6.199e-01      -1.703e-06           0.000           0.000           1.000       2.561e-06          0.1585
 217       5.042e-02      -6.199e-01       2.195e-06          -0.000          -0.000           1.000       2.165e-06          0.2412
 218       3.049e-02      -6.199e-01      -2.617e-07          -0.000          -0.000           1.000       1.643e-06          0.3922
 219       1.591e-02      -6.199e-01      -7.965e-07           0.000           0.000           1.000       1.025e-06          0.7066
 220       7.519e-03      -6.199e-01      -4.742e-07           0.000           0.000           1.000       3.486e-07          1.6849
Strip 18
 221       2.391e-01      -6.198e-01       2.945e-09           0.000          -0.000           1.000       5.745e-07          0.0112
 222       2.341e-01      -6.198e-01       5.300e-09          -0.000          -0.000           1.000       1.690e-06          0.0195
 223       2.225e-01      -6.198e-01      -3.654e-09           0.000           0.000           1.000       2.708e-06          0.0288
 224       2.051e-01      -6.198e-01       2.137e-08          -0.000          -0.000           1.000       3.568e-06          0.0391
 225       1.830e-01      -6.198e-01       3.567e-08           0.000           0.000           1.000       4.220e-06          0.0511
 226       1.573e-01      -6.198e-01       3.376e-07           0.000           0.000           1.000       4.628e-06          0.0662
 227       1.295e-01      -6.198e-01       9.728e-07           0.000          -0.000           1.000       4.766e-06          0.0859
 228       1.014e-01      -6.198e-01      -1.309e-08          -0.000          -0.000           1.000       4.628e-06          0.1128
 229       7.449e-02      -6.198e-01      -1.704e-06           0.000           0.000           1.000       4.220e-06          0.1598
 230       5.036e-02      -6.198e-01       2.196e-06          -0.000          -0.000           1.000       3.568e-06          0.2429
 231       3.043e-02      -6.198e-01      -2.618e-07          -0.000          -0.000           1.000       2.708e-06          0.3945
 232       1.584e-02      -6.198e-01      -7.967e-07           0.000           0.000           1.000       1.690e-06          0.7091
 233       7.452e-03      -6.198e-01      -4.743e-07           0.000           0.000           1.000       5.745e-07          1.6905
Strip 19
 234       2.391e-01      -6.196e-01       2.946e-09           0.000          -0.000           1.000       7.908e-07          0.0113
 235       2.341e-01      -6.196e-01       5.302e-09          -0.000          -0.000           1.000       2.327e-06          0.0196
 236       2.225e-01      -6.196e-01      -3.655e-09           0.000           0.000           1.000       3.727e-06          0.0290
 237       2.051e-01      -6.196e-01       2.138e-08          -0.000          -0.000           1.000       4.911e-06          0.0394
 238       1.829e-01      -6.196e-01       3.569e-08           0.000           0.000           1.000       5.809e-06          0.0515
 239       1.572e-01      -6.196e-01       3.377e-07           0.000           0.000           1.000       6.370e-06          0.0667
 240       1.295e-01      -6.196e-01       9.732e-07           0.000          -0.000           1.000       6.561e-06          0.0867
 241       1.013e-01      -6.196e-01      -1.310e-08          -0.000          -0.000           1.000       6.370e-06          0.1138
 242       7.442e-02      -6.196e-01      -1.704e-06           0.000           0.000           1.000       5.809e-06          0.1612
 243       5.028e-02      -6.196e-01       2.197e-06          -0.000          -0.000           1.000       4.911e-06          0.2449
 244       3.034e-02      -6.196e-01      -2.619e-07          -0.000          -0.000           1.000       3.727e-06          0.3970
 245       1.575e-02      -6.196e-01      -7.970e-07           0.000           0.000           1.000       2.327e-06          0.7115
 246       7.353e-03      -6.196e-01      -4.745e-07           0.000           0.000           1.000       7.908e-07          1.6984
Strip 20
 247       2.391e-01      -6.193e-01       2.948e-09           0.000          -0.000           1.000       9.939e-07          0.0114
 248       2.341e-01      -6.193e-01       5.305e-09          -0.000          -0.000           1.000       2.924e-06          0.0198
 249       2.225e-01      -6.193e-01      -3.657e-09           0.000           0.000           1.000       4.684e-06          0.0293
 250       2.051e-01      -6.193e-01       2.139e-08          -0.000          -0.000           1.000       6.172e-06          0.0397
 251       1.829e-01      -6.193e-01       3.571e-08           0.000           0.000           1.000       7.301e-06          0.0520
 252       1.572e-01      -6.193e-01       3.379e-07           0.000           0.000           1.000       8.006e-06          0.0674
 253       1.294e-01      -6.193e-01       9.737e-07           0.000          -0.000           1.000       8.246e-06          0.0875
 254       1.013e-01      -6.193e-01      -1.310e-08          -0.000          -0.000           1.000       8.006e-06          0.1150
 255       7.432e-02      -6.193e-01      -1.705e-06           0.000           0.000           1.000       7.301e-06          0.1629
 256       5.018e-02      -6.193e-01       2.198e-06          -0.000          -0.000           1.000       6.172e-06          0.2470
 257       3.022e-02      -6.193e-01      -2.620e-07          -0.000          -0.000           1.000       4.684e-06          0.3999
 258       1.562e-02      -6.193e-01      -7.975e-07           0.000           0.000           1.000       2.924e-06          0.7141
 259       7.224e-03      -6.193e-01      -4.748e-07           0.000           0.000           1.000       9.939e-07          1.7083
Strip 21
 260       2.391e-01      -6.190e-01       2.950e-09           0.000          -0.000           1.000       1.180e-06          0.0115
 261       2.341e-01      -6.190e-01       5.309e-09          -0.000          -0.000           1.000       3.473e-06          0.0200
 262       2.225e-01      -6.190e-01      -3.660e-09           0.000           0.000           1.000       5.563e-06          0.0296
 263       2.051e-01      -6.190e-01       2.141e-08          -0.000          -0.000           1.000       7.330e-06          0.0402
 264       1.829e-01      -6.190e-01       3.573e-08           0.000           0.000           1.000       8.671e-06          0.0526
 265       1.571e-01      -6.190e-01       3.381e-07           0.000           0.000           1.000       9.508e-06          0.0681
 266       1.293e-01      -6.190e-01       9.744e-07           0.000          -0.000           1.000       9.793e-06          0.0885
 267       1.012e-01      -6.190e-01      -1.311e-08          -0.000          -0.000           1.000       9.508e-06          0.1163
 268       7.421e-02      -6.190e-01      -1.707e-06           0.000           0.000           1.000       8.671e-06          0.1647
 269       5.005e-02      -6.190e-01       2.199e-06          -0.000          -0.000           1.000       7.330e-06          0.2495
 270       3.008e-02      -6.190e-01      -2.622e-07          -0.000          -0.000           1.000       5.563e-06          0.4030
 271       1.547e-02      -6.190e-01      -7.980e-07           0.000           0.000           1.000       3.473e-06          0.7169
 272       7.067e-03      -6.190e-01      -4.751e-07           0.000           0.000           1.000       1.180e-06          1.7197
Strip 22
 273       2.391e-01      -6.186e-01       2.952e-09           0.000          -0.000           1.000       1.347e-06          0.0116
 274       2.341e-01      -6.186e-01       5.313e-09          -0.000          -0.000           1.000       3.963e-06          0.0202
 275       2.225e-01      -6.186e-01      -3.663e-09           0.000           0.000           1.000       6.348e-06          0.0299
 276       2.050e-01      -6.186e-01       2.142e-08          -0.000          -0.000           1.000       8.365e-06          0.0406
 277       1.828e-01      -6.186e-01       3.576e-08           0.000           0.000           1.000       9.895e-06          0.0532
 278       1.570e-01      -6.186e-01       3.384e-07           0.000           0.000           1.000       1.085e-05          0.0689
 279       1.293e-01      -6.186e-01       9.752e-07           0.000          -0.000           1.000       1.118e-05          0.0896
 280       1.011e-01      -6.186e-01      -1.312e-08          -0.000          -0.000           1.000       1.085e-05          0.1178
 281       7.408e-02      -6.186e-01      -1.708e-06           0.000           0.000           1.000       9.895e-06          0.1668
 282       4.990e-02      -6.186e-01       2.201e-06          -0.000          -0.000           1.000       8.365e-06          0.2522
 283       2.992e-02      -6.186e-01      -2.624e-07          -0.000          -0.000           1.000       6.348e-06          0.4065
 284       1.530e-02      -6.186e-01      -7.986e-07           0.000           0.000           1.000       3.963e-06          0.7205
 285       6.884e-03      -6.186e-01      -4.755e-07           0.000           0.000           1.000       1.347e-06          1.7315
Strip 23
 286       2.391e-01      -6.182e-01       2.954e-09           0.000          -0.000           1.000       1.491e-06          0.0117
 287       2.341e-01      -6.182e-01       5.318e-09          -0.000          -0.000           1.000       4.386e-06          0.0204
 288       2.225e-01      -6.182e-01      -3.666e-09           0.000           0.000           1.000       7.027e-06          0.0302
 289       2.050e-01      -6.182e-01       2.144e-08          -0.000          -0.000           1.000       9.259e-06          0.0411
 290       1.828e-01      -6.182e-01       3.579e-08           0.000           0.000           1.000       1.095e-05          0.0539
 291       1.570e-01      -6.182e-01       3.387e-07           0.000           0.000           1.000       1.201e-05          0.0698
 292       1.292e-01      -6.182e-01       9.760e-07           0.000          -0.000           1.000       1.237e-05          0.0907
 293       1.009e-01      -6.182e-01      -1.313e-08          -0.000          -0.000           1.000       1.201e-05          0.1194
 294       7.394e-02      -6.182e-01      -1.709e-06           0.000           0.000           1.000       1.095e-05          0.1690
 295       4.973e-02      -6.182e-01       2.203e-06          -0.000          -0.000           1.000       9.259e-06          0.2551
 296       2.973e-02      -6.182e-01      -2.626e-07          -0.000          -0.000           1.000       7.027e-06          0.4102
 297       1.510e-02      -6.182e-01      -7.993e-07           0.000           0.000           1.000       4.386e-06          0.7248
 298       6.679e-03      -6.182e-01      -4.759e-07           0.000           0.000           1.000       1.491e-06          1.7427
Strip 24
 299       2.391e-01      -6.178e-01       2.957e-09           0.000          -0.000           1.000       1.610e-06          0.0118
 300       2.340e-01      -6.178e-01       5.323e-09          -0.000          -0.000           1.000       4.736e-06          0.0206
 301       2.224e-01      -6.178e-01      -3.669e-09           0.000           0.000           1.000       7.587e-06          0.0306
 302       2.050e-01      -6.178e-01       2.146e-08          -0.000          -0.000           1.000       9.997e-06          0.0416
 303       1.827e-01      -6.178e-01       3.582e-08           0.000           0.000           1.000       1.183e-05          0.0546
 304       1.569e-01      -6.178e-01       3.390e-07           0.000           0.000           1.000       1.297e-05          0.0707
 305       1.291e-01      -6.178e-01       9.770e-07           0.000          -0.000           1.000       1.336e-05          0.0920
 306       1.008e-01      -6.178e-01      -1.315e-08          -0.000          -0.000           1.000       1.297e-05          0.1211
 307       7.378e-02      -6.178e-01      -1.711e-06           0.000           0.000           1.000       1.183e-05          0.1713
 308       4.955e-02      -6.178e-01       2.205e-06          -0.000          -0.000           1.000       9.997e-06          0.2582
 309       2.953e-02      -6.178e-01      -2.629e-07          -0.000          -0.000           1.000       7.587e-06          0.4141
 310       1.488e-02      -6.178e-01      -8.001e-07           0.000           0.000           1.000       4.736e-06          0.7301
 311       6.456e-03      -6.178e-01      -4.763e-07           0.000           0.000           1.000       1.610e-06          1.7527
Strip 25
 312       2.391e-01      -6.173e-01       2.960e-09           0.000          -0.000           1.000       1.701e-06          0.0120
 313       2.340e-01      -6.173e-01       5.328e-09          -0.000          -0.000           1.000       5.005e-06          0.0209
 314       2.224e-01      -6.173e-01      -3.673e-09           0.000           0.000           1.000       8.019e-06          0.0310
 315       2.049e-01      -6.173e-01       2.148e-08          -0.000          -0.000           1.000       1.057e-05          0.0422
 316       1.826e-01      -6.173e-01       3.586e-08           0.000           0.000           1.000       1.250e-05          0.0553
 317       1.568e-01      -6.173e-01       3.394e-07           0.000           0.000           1.000       1.371e-05          0.0717
 318       1.289e-01      -6.173e-01       9.780e-07           0.000          -0.000           1.000       1.412e-05          0.0933
 319       1.007e-01      -6.173e-01      -1.316e-08          -0.000          -0.000           1.000       1.371e-05          0.1228
 320       7.361e-02      -6.173e-01      -1.713e-06           0.000           0.000           1.000       1.250e-05          0.1738
 321       4.936e-02      -6.173e-01       2.207e-06          -0.000          -0.000           1.000       1.057e-05          0.2614
 322       2.932e-02      -6.173e-01      -2.632e-07          -0.000          -0.000           1.000       8.019e-06          0.4182
 323       1.465e-02      -6.173e-01      -8.009e-07           0.000           0.000           1.000       5.005e-06          0.7363
 324       6.217e-03      -6.173e-01      -4.768e-07           0.000           0.000           1.000       1.701e-06          1.7614
Strip 26
 325       2.391e-01      -6.168e-01       2.963e-09           0.000          -0.000           1.000       1.764e-06          0.0121
 326       2.340e-01      -6.168e-01       5.334e-09          -0.000          -0.000           1.000       5.190e-06          0.0211
 327       2.224e-01      -6.168e-01      -3.677e-09           0.000           0.000           1.000       8.314e-06          0.0314
 328       2.049e-01      -6.168e-01       2.151e-08          -0.000          -0.000           1.000       1.096e-05          0.0427
 329       1.826e-01      -6.168e-01       3.590e-08           0.000           0.000           1.000       1.296e-05          0.0561
 330       1.567e-01      -6.168e-01       3.397e-07           0.000           0.000           1.000       1.421e-05          0.0727
 331       1.288e-01      -6.168e-01       9.790e-07           0.000          -0.000           1.000       1.464e-05          0.0946
 332       1.005e-01      -6.168e-01      -1.317e-08          -0.000          -0.000           1.000       1.421e-05          0.1246
 333       7.343e-02      -6.168e-01      -1.715e-06           0.000           0.000           1.000       1.296e-05          0.1763
 334       4.915e-02      -6.168e-01       2.210e-06          -0.000          -0.000           1.000       1.096e-05          0.2646
 335       2.909e-02      -6.168e-01      -2.634e-07          -0.000          -0.000           1.000       8.314e-06          0.4223
 336       1.441e-02      -6.168e-01      -8.018e-07           0.000           0.000           1.000       5.190e-06          0.7429
 337       5.968e-03      -6.168e-01      -4.773e-07           0.000           0.000           1.000       1.764e-06          1.7694
Strip 27
 338       2.391e-01      -6.163e-01       2.967e-09           0.000          -0.000           1.000       1.797e-06          0.0122
 339       2.340e-01      -6.163e-01       5.340e-09          -0.000          -0.000           1.000       5.286e-06          0.0213
 340       2.224e-01      -6.163e-01      -3.681e-09           0.000           0.000           1.000       8.468e-06          0.0318
 341       2.049e-01      -6.163e-01       2.153e-08          -0.000          -0.000           1.000       1.116e-05          0.0433
 342       1.825e-01      -6.163e-01       3.594e-08           0.000           0.000           1.000       1.320e-05          0.0568
 343       1.566e-01      -6.163e-01       3.401e-07           0.000           0.000           1.000       1.447e-05          0.0737
 344       1.287e-01      -6.163e-01       9.801e-07           0.000          -0.000           1.000       1.491e-05          0.0959
 345       1.004e-01      -6.163e-01      -1.319e-08          -0.000          -0.000           1.000       1.447e-05          0.1264
 346       7.325e-02      -6.163e-01      -1.717e-06           0.000           0.000           1.000       1.320e-05          0.1787
 347       4.894e-02      -6.163e-01       2.212e-06          -0.000          -0.000           1.000       1.116e-05          0.2677
 348       2.886e-02      -6.163e-01      -2.637e-07          -0.000          -0.000           1.000       8.468e-06          0.4263
 349       1.417e-02      -6.163e-01      -8.026e-07           0.000           0.000           1.000       5.286e-06          0.7494
 350       5.712e-03      -6.163e-01      -4.778e-07           0.000           0.000           1.000       1.797e-06          1.7781
Strip 28
 351       2.391e-01      -6.160e-01       2.968e-09           0.000           0.000           1.000       1.178e-07          0.0123
 352       2.340e-01      -6.160e-01       5.343e-09          -0.000          -0.000           1.000       3.467e-07          0.0214
 353       2.224e-01      -6.160e-01      -3.683e-09           0.000           0.000           1.000       5.553e-07          0.0319
 354       2.049e-01      -6.160e-01       2.154e-08          -0.000          -0.000           1.000       7.317e-07          0.0435
 355       1.825e-01      -6.160e-01       3.596e-08           0.000           0.000           1.000       8.656e-07          0.0571
 356       1.566e-01      -6.160e-01       3.403e-07           0.000           0.000           1.000       9.492e-07          0.0740
 357       1.286e-01      -6.160e-01       9.806e-07           0.000          -0.000           1.000       9.776e-07          0.0964
 358       1.003e-01      -6.160e-01      -1.320e-08          -0.000          -0.000           1.000       9.492e-07          0.1270
 359       7.315e-02      -6.160e-01      -1.717e-06           0.000           0.000           1.000       8.656e-07          0.1795
 360       4.884e-02      -6.160e-01       2.213e-06          -0.000          -0.000           1.000       7.317e-07          0.2688
 361       2.874e-02      -6.160e-01      -2.639e-07          -0.000          -0.000           1.000       5.553e-07          0.4276
 362       1.404e-02      -6.160e-01      -8.031e-07           0.000           0.000           1.000       3.467e-07          0.7510
 363       5.578e-03      -6.160e-01      -4.781e-07           0.000           0.000           1.000       1.178e-07          1.7835
Strip 29
 364       2.391e-01      -6.159e-01       2.969e-09           0.000          -0.000           1.000       3.515e-07          0.0123
 365       2.340e-01      -6.159e-01       5.343e-09          -0.000          -0.000           1.000       1.034e-06          0.0215
 366       2.224e-01      -6.159e-01      -3.683e-09           0.000           0.000           1.000       1.657e-06          0.0320
 367       2.048e-01      -6.159e-01       2.154e-08          -0.000          -0.000           1.000       2.183e-06          0.0437
 368       1.825e-01      -6.159e-01       3.596e-08           0.000           0.000           1.000       2.582e-06          0.0573
 369       1.566e-01      -6.159e-01       3.403e-07           0.000           0.000           1.000       2.832e-06          0.0744
 370       1.286e-01      -6.159e-01       9.807e-07           0.000          -0.000           1.000       2.916e-06          0.0968
 371       1.003e-01      -6.159e-01      -1.320e-08          -0.000          -0.000           1.000       2.832e-06          0.1276
 372       7.314e-02      -6.159e-01      -1.718e-06           0.000           0.000           1.000       2.582e-06          0.1803
 373       4.882e-02      -6.159e-01       2.214e-06          -0.000          -0.000           1.000       2.183e-06          0.2697
 374       2.873e-02      -6.159e-01      -2.639e-07          -0.000          -0.000           1.000       1.657e-06          0.4287
 375       1.402e-02      -6.159e-01      -8.032e-07           0.000           0.000           1.000       1.034e-06          0.7525
 376       5.561e-03      -6.159e-01      -4.781e-07           0.000           0.000           1.000       3.515e-07          1.7887
Strip 30
 377       2.391e-01      -6.158e-01       2.969e-09           0.000          -0.000           1.000       5.793e-07          0.0124
 378       2.340e-01      -6.158e-01       5.344e-09          -0.000          -0.000           1.000       1.704e-06          0.0216
 379       2.224e-01      -6.158e-01      -3.684e-09           0.000           0.000           1.000       2.730e-06          0.0322
 380       2.048e-01      -6.158e-01       2.155e-08          -0.000          -0.000           1.000       3.597e-06          0.0439
 381       1.825e-01      -6.158e-01       3.597e-08           0.000           0.000           1.000       4.255e-06          0.0576
 382       1.566e-01      -6.158e-01       3.404e-07           0.000           0.000           1.000       4.666e-06          0.0747
 383       1.286e-01      -6.158e-01       9.808e-07           0.000          -0.000           1.000       4.806e-06          0.0973
 384       1.002e-01      -6.158e-01      -1.320e-08          -0.000          -0.000           1.000       4.666e-06          0.1283
 385       7.312e-02      -6.158e-01      -1.718e-06           0.000           0.000           1.000       4.255e-06          0.1812
 386       4.879e-02      -6.158e-01       2.214e-06          -0.000          -0.000           1.000       3.597e-06          0.2709
 387       2.870e-02      -6.158e-01      -2.639e-07          -0.000          -0.000           1.000       2.730e-06          0.4302
 388       1.399e-02      -6.158e-01      -8.033e-07           0.000           0.000           1.000       1.704e-06          0.7541
 389       5.528e-03      -6.158e-01      -4.782e-07           0.000           0.000           1.000       5.793e-07          1.7965
Strip 31
 390       2.391e-01      -6.156e-01       2.970e-09           0.000          -0.000           1.000       7.972e-07          0.0124
 391       2.340e-01      -6.156e-01       5.345e-09          -0.000          -0.000           1.000       2.345e-06          0.0217
 392       2.224e-01      -6.156e-01      -3.685e-09           0.000           0.000           1.000       3.757e-06          0.0324
 393       2.048e-01      -6.156e-01       2.155e-08          -0.000          -0.000           1.000       4.951e-06          0.0442
 394       1.825e-01      -6.156e-01       3.597e-08           0.000           0.000           1.000       5.856e-06          0.0580
 395       1.565e-01      -6.156e-01       3.405e-07           0.000           0.000           1.000       6.422e-06          0.0752
 396       1.286e-01      -6.156e-01       9.810e-07           0.000          -0.000           1.000       6.614e-06          0.0980
 397       1.002e-01      -6.156e-01      -1.320e-08          -0.000          -0.000           1.000       6.422e-06          0.1291
 398       7.308e-02      -6.156e-01      -1.718e-06           0.000           0.000           1.000       5.856e-06          0.1824
 399       4.875e-02      -6.156e-01       2.214e-06          -0.000          -0.000           1.000       4.951e-06          0.2724
 400       2.865e-02      -6.156e-01      -2.640e-07          -0.000          -0.000           1.000       3.757e-06          0.4320
 401       1.394e-02      -6.156e-01      -8.034e-07           0.000           0.000           1.000       2.345e-06          0.7559
 402       5.479e-03      -6.156e-01      -4.783e-07           0.000           0.000           1.000       7.972e-07          1.8072
Strip 32
 403       2.391e-01      -6.153e-01       2.970e-09           0.000          -0.000           1.000       1.002e-06          0.0125
 404       2.340e-01      -6.153e-01       5.346e-09          -0.000          -0.000           1.000       2.947e-06          0.0219
 405       2.224e-01      -6.153e-01      -3.686e-09           0.000           0.000           1.000       4.721e-06          0.0326
 406       2.048e-01      -6.153e-01       2.156e-08          -0.000          -0.000           1.000       6.220e-06          0.0445
 407       1.825e-01      -6.153e-01       3.598e-08           0.000           0.000           1.000       7.358e-06          0.0584
 408       1.565e-01      -6.153e-01       3.405e-07           0.000           0.000           1.000       8.069e-06          0.0758
 409       1.286e-01      -6.153e-01       9.813e-07           0.000          -0.000           1.000       8.310e-06          0.0987
 410       1.002e-01      -6.153e-01      -1.321e-08          -0.000          -0.000           1.000       8.069e-06          0.1302
 411       7.304e-02      -6.153e-01      -1.719e-06           0.000           0.000           1.000       7.358e-06          0.1838
 412       4.870e-02      -6.153e-01       2.215e-06          -0.000          -0.000           1.000       6.220e-06          0.2742
 413       2.859e-02      -6.153e-01      -2.641e-07          -0.000          -0.000           1.000       4.721e-06          0.4341
 414       1.388e-02      -6.153e-01      -8.037e-07           0.000           0.000           1.000       2.947e-06          0.7578
 415       5.414e-03      -6.153e-01      -4.784e-07           0.000           0.000           1.000       1.002e-06          1.8209
Strip 33
 416       2.391e-01      -6.150e-01       2.971e-09           0.000           0.000           1.000       1.189e-06          0.0126
 417       2.340e-01      -6.150e-01       5.348e-09          -0.000          -0.000           1.000       3.498e-06          0.0220
 418       2.224e-01      -6.150e-01      -3.687e-09           0.000           0.000           1.000       5.604e-06          0.0329
 419       2.048e-01      -6.150e-01       2.156e-08          -0.000          -0.000           1.000       7.385e-06          0.0449
 420       1.824e-01      -6.150e-01       3.600e-08           0.000           0.000           1.000       8.736e-06          0.0589
 421       1.565e-01      -6.150e-01       3.407e-07           0.000           0.000           1.000       9.579e-06          0.0765
 422       1.285e-01      -6.150e-01       9.816e-07           0.000          -0.000           1.000       9.866e-06          0.0996
 423       1.001e-01      -6.150e-01      -1.321e-08          -0.000          -0.000           1.000       9.579e-06          0.1314
 424       7.298e-02      -6.150e-01      -1.719e-06           0.000           0.000           1.000       8.736e-06          0.1855
 425       4.864e-02      -6.150e-01       2.216e-06          -0.000          -0.000           1.000       7.385e-06          0.2763
 426       2.852e-02      -6.150e-01      -2.642e-07          -0.000          -0.000           1.000       5.604e-06          0.4365
 427       1.380e-02      -6.150e-01      -8.039e-07           0.000           0.000           1.000       3.498e-06          0.7600
 428       5.335e-03      -6.150e-01      -4.786e-07           0.000           0.000           1.000       1.189e-06          1.8373
Strip 34
 429       2.391e-01      -6.146e-01       2.973e-09           0.000          -0.000           1.000       1.357e-06          0.0127
 430       2.340e-01      -6.146e-01       5.350e-09          -0.000          -0.000           1.000       3.991e-06          0.0222
 431       2.223e-01      -6.146e-01      -3.688e-09           0.000           0.000           1.000       6.393e-06          0.0332
 432       2.048e-01      -6.146e-01       2.157e-08          -0.000          -0.000           1.000       8.424e-06          0.0453
 433       1.824e-01      -6.146e-01       3.601e-08           0.000           0.000           1.000       9.965e-06          0.0595
 434       1.565e-01      -6.146e-01       3.408e-07           0.000           0.000           1.000       1.093e-05          0.0773
 435       1.285e-01      -6.146e-01       9.820e-07           0.000          -0.000           1.000       1.125e-05          0.1007
 436       1.001e-01      -6.146e-01      -1.322e-08          -0.000          -0.000           1.000       1.093e-05          0.1328
 437       7.291e-02      -6.146e-01      -1.720e-06           0.000           0.000           1.000       9.965e-06          0.1873
 438       4.856e-02      -6.146e-01       2.217e-06          -0.000          -0.000           1.000       8.424e-06          0.2786
 439       2.844e-02      -6.146e-01      -2.643e-07          -0.000          -0.000           1.000       6.393e-06          0.4392
 440       1.371e-02      -6.146e-01      -8.043e-07           0.000           0.000           1.000       3.991e-06          0.7628
 441       5.244e-03      -6.146e-01      -4.788e-07           0.000           0.000           1.000       1.357e-06          1.8554
Strip 35
 442       2.391e-01      -6.142e-01       2.974e-09           0.000          -0.000           1.000       1.501e-06          0.0128
 443       2.340e-01      -6.142e-01       5.353e-09          -0.000          -0.000           1.000       4.415e-06          0.0224
 444       2.223e-01      -6.142e-01      -3.690e-09           0.000           0.000           1.000       7.073e-06          0.0335
 445       2.048e-01      -6.142e-01       2.158e-08          -0.000          -0.000           1.000       9.320e-06          0.0458
 446       1.824e-01      -6.142e-01       3.603e-08           0.000           0.000           1.000       1.103e-05          0.0601
 447       1.564e-01      -6.142e-01       3.409e-07           0.000           0.000           1.000       1.209e-05          0.0781
 448       1.284e-01      -6.142e-01       9.825e-07           0.000          -0.000           1.000       1.245e-05          0.1018
 449       1.000e-01      -6.142e-01      -1.322e-08          -0.000          -0.000           1.000       1.209e-05          0.1343
 450       7.284e-02      -6.142e-01      -1.721e-06           0.000           0.000           1.000       1.103e-05          0.1894
 451       4.848e-02      -6.142e-01       2.218e-06          -0.000          -0.000           1.000       9.320e-06          0.2811
 452       2.835e-02      -6.142e-01      -2.644e-07          -0.000          -0.000           1.000       7.073e-06          0.4422
 453       1.362e-02      -6.142e-01      -8.046e-07           0.000           0.000           1.000       4.415e-06          0.7662
 454       5.142e-03      -6.142e-01      -4.790e-07           0.000           0.000           1.000       1.501e-06          1.8744
Strip 36
 455       2.391e-01      -6.138e-01       2.975e-09           0.000          -0.000           1.000       1.620e-06          0.0129
 456       2.340e-01      -6.138e-01       5.355e-09          -0.000          -0.000           1.000       4.765e-06          0.0227
 457       2.223e-01      -6.138e-01      -3.692e-09           0.000           0.000           1.000       7.633e-06          0.0339
 458       2.048e-01      -6.138e-01       2.159e-08          -0.000          -0.000           1.000       1.006e-05          0.0463
 459       1.824e-01      -6.138e-01       3.604e-08           0.000           0.000           1.000       1.190e-05          0.0609
 460       1.564e-01      -6.138e-01       3.411e-07           0.000           0.000           1.000       1.305e-05          0.0791
 461       1.284e-01      -6.138e-01       9.829e-07           0.000          -0.000           1.000       1.344e-05          0.1030
 462       9.995e-02      -6.138e-01      -1.323e-08          -0.000          -0.000           1.000       1.305e-05          0.1359
 463       7.276e-02      -6.138e-01      -1.722e-06           0.000           0.000           1.000       1.190e-05          0.1916
 464       4.839e-02      -6.138e-01       2.219e-06          -0.000          -0.000           1.000       1.006e-05          0.2839
 465       2.825e-02      -6.138e-01      -2.645e-07          -0.000          -0.000           1.000       7.633e-06          0.4455
 466       1.351e-02      -6.138e-01      -8.050e-07           0.000           0.000           1.000       4.765e-06          0.7703
 467       5.030e-03      -6.138e-01      -4.792e-07           0.000           0.000           1.000       1.620e-06          1.8935
Strip 37
 468       2.391e-01      -6.133e-01       2.977e-09           0.000          -0.000           1.000       1.711e-06          0.0130
 469       2.340e-01      -6.133e-01       5.358e-09          -0.000          -0.000           1.000       5.033e-06          0.0229
 470       2.223e-01      -6.133e-01      -3.694e-09           0.000           0.000           1.000       8.063e-06          0.0343
 471       2.048e-01      -6.133e-01       2.160e-08          -0.000          -0.000           1.000       1.062e-05          0.0469
 472       1.823e-01      -6.133e-01       3.606e-08           0.000           0.000           1.000       1.257e-05          0.0616
 473       1.563e-01      -6.133e-01       3.413e-07           0.000           0.000           1.000       1.378e-05          0.0800
 474       1.283e-01      -6.133e-01       9.834e-07           0.000          -0.000           1.000       1.419e-05          0.1044
 475       9.988e-02      -6.133e-01      -1.323e-08          -0.000          -0.000           1.000       1.378e-05          0.1377
 476       7.268e-02      -6.133e-01      -1.722e-06           0.000           0.000           1.000       1.257e-05          0.1939
 477       4.829e-02      -6.133e-01       2.220e-06          -0.000          -0.000           1.000       1.062e-05          0.2868
 478       2.814e-02      -6.133e-01      -2.646e-07          -0.000          -0.000           1.000       8.063e-06          0.4490
 479       1.339e-02      -6.133e-01      -8.054e-07           0.000           0.000           1.000       5.033e-06          0.7752
 480       4.911e-03      -6.133e-01      -4.795e-07           0.000           0.000           1.000       1.711e-06          1.9122
Strip 38
 481       2.391e-01      -6.128e-01       2.978e-09           0.000          -0.000           1.000       1.773e-06          0.0132
 482       2.340e-01      -6.128e-01       5.361e-09          -0.000          -0.000           1.000       5.216e-06          0.0232
[...]
1281       1.029e-01       6.231e-01      -1.295e-08          -0.000           0.000           1.000       1.731e-05          0.1004
1282       7.622e-02       6.231e-01      -1.686e-06           0.000          -0.000           1.000       1.578e-05          0.1420
1283       5.236e-02       6.231e-01       2.173e-06          -0.000           0.000           1.000       1.334e-05          0.2188
1284       3.263e-02       6.231e-01      -2.590e-07          -0.000           0.000           1.000       1.013e-05          0.3616
1285       1.820e-02       6.231e-01      -7.883e-07           0.000          -0.000           1.000       6.321e-06          0.6587
1286       9.895e-03       6.231e-01      -4.693e-07           0.000          -0.000           1.000       2.149e-06          1.6778
Strip 100
1287       2.392e-01       6.237e-01       2.909e-09           0.000          -0.000           1.000       1.348e-06          0.0101
1288       2.341e-01       6.237e-01       5.236e-09          -0.000           0.000           1.000       3.967e-06          0.0174
1289       2.227e-01       6.237e-01      -3.609e-09           0.000          -0.000           1.000       6.355e-06          0.0255
1290       2.056e-01       6.237e-01       2.111e-08          -0.000           0.000           1.000       8.373e-06          0.0344
1291       1.836e-01       6.237e-01       3.524e-08           0.000          -0.000           1.000       9.905e-06          0.0449
1292       1.583e-01       6.237e-01       3.335e-07           0.000          -0.000           1.000       1.086e-05          0.0580
1293       1.309e-01       6.237e-01       9.610e-07           0.000           0.000           1.000       1.119e-05          0.0750
1294       1.031e-01       6.237e-01      -1.293e-08          -0.000           0.000           1.000       1.086e-05          0.0978
1295       7.650e-02       6.237e-01      -1.683e-06           0.000          -0.000           1.000       9.905e-06          0.1383
1296       5.267e-02       6.237e-01       2.169e-06          -0.000           0.000           1.000       8.373e-06          0.2137
1297       3.298e-02       6.237e-01      -2.586e-07          -0.000           0.000           1.000       6.355e-06          0.3549
1298       1.857e-02       6.237e-01      -7.870e-07           0.000          -0.000           1.000       3.967e-06          0.6476
1299       1.028e-02       6.237e-01      -4.685e-07           0.000          -0.000           1.000       1.348e-06          1.6698
Strip 101
1300       2.392e-01       6.239e-01       2.906e-09           0.000           0.000           1.000       4.595e-07          0.0100
1301       2.341e-01       6.239e-01       5.231e-09          -0.000           0.000           1.000       1.352e-06          0.0171
1302       2.227e-01       6.239e-01      -3.606e-09           0.000          -0.000           1.000       2.166e-06          0.0250
1303       2.056e-01       6.239e-01       2.109e-08          -0.000           0.000           1.000       2.854e-06          0.0338
1304       1.837e-01       6.239e-01       3.521e-08           0.000          -0.000           1.000       3.376e-06          0.0440
1305       1.583e-01       6.239e-01       3.332e-07           0.000          -0.000           1.000       3.702e-06          0.0568
1306       1.310e-01       6.239e-01       9.601e-07           0.000           0.000           1.000       3.812e-06          0.0734
1307       1.032e-01       6.239e-01      -1.292e-08          -0.000           0.000           1.000       3.702e-06          0.0957
1308       7.664e-02       6.239e-01      -1.682e-06           0.000          -0.000           1.000       3.376e-06          0.1353
1309       5.283e-02       6.239e-01       2.167e-06          -0.000           0.000           1.000       2.854e-06          0.2096
1310       3.316e-02       6.239e-01      -2.584e-07          -0.000           0.000           1.000       2.166e-06          0.3496
1311       1.876e-02       6.239e-01      -7.863e-07           0.000          -0.000           1.000       1.352e-06          0.6387
1312       1.048e-02       6.239e-01      -4.681e-07           0.000          -0.000           1.000       4.595e-07          1.6610
Strip 102
1313       2.392e-01       6.250e-01       2.896e-09           0.000           0.000           1.000       6.720e-06          0.0098
1314       2.342e-01       6.250e-01       5.213e-09          -0.000           0.000           1.000       1.977e-05          0.0168
1315       2.228e-01       6.250e-01      -3.594e-09           0.000          -0.000           1.000       3.167e-05          0.0245
1316       2.057e-01       6.250e-01       2.102e-08          -0.000           0.000           1.000       4.173e-05          0.0330
1317       1.839e-01       6.250e-01       3.509e-08           0.000          -0.000           1.000       4.936e-05          0.0430
1318       1.586e-01       6.250e-01       3.320e-07           0.000          -0.000           1.000       5.413e-05          0.0555
1319       1.313e-01       6.250e-01       9.568e-07           0.000           0.000           1.000       5.575e-05          0.0717
1320       1.037e-01       6.250e-01      -1.288e-08          -0.000           0.000           1.000       5.413e-05          0.0933
1321       7.720e-02       6.250e-01      -1.676e-06           0.000          -0.000           1.000       4.936e-05          0.1318
1322       5.348e-02       6.250e-01       2.160e-06          -0.000           0.000           1.000       4.173e-05          0.2049
1323       3.387e-02       6.250e-01      -2.575e-07          -0.000           0.000           1.000       3.167e-05          0.3436
1324       1.952e-02       6.250e-01      -7.836e-07           0.000          -0.000           1.000       1.977e-05          0.6290
1325       1.127e-02       6.250e-01      -4.665e-07           0.000          -0.000           1.000       6.720e-06          1.6528
Strip 103
1326       2.392e-01       6.267e-01       2.880e-09           0.000           0.000           1.000       4.892e-06          0.0093
1327       2.342e-01       6.267e-01       5.184e-09          -0.000           0.000           1.000       1.439e-05          0.0158
1328       2.229e-01       6.267e-01      -3.574e-09           0.000          -0.000           1.000       2.305e-05          0.0230
1329       2.059e-01       6.267e-01       2.090e-08          -0.000           0.000           1.000       3.038e-05          0.0310
1330       1.842e-01       6.267e-01       3.489e-08           0.000          -0.000           1.000       3.593e-05          0.0403
1331       1.591e-01       6.267e-01       3.302e-07           0.000          -0.000           1.000       3.940e-05          0.0519
1332       1.320e-01       6.267e-01       9.514e-07           0.000           0.000           1.000       4.058e-05          0.0669
1333       1.044e-01       6.267e-01      -1.280e-08          -0.000           0.000           1.000       3.940e-05          0.0868
1334       7.812e-02       6.267e-01      -1.666e-06           0.000          -0.000           1.000       3.593e-05          0.1224
1335       5.452e-02       6.267e-01       2.148e-06          -0.000           0.000           1.000       3.038e-05          0.1921
1336       3.503e-02       6.267e-01      -2.560e-07          -0.000           0.000           1.000       2.305e-05          0.3290
1337       2.076e-02       6.267e-01      -7.792e-07           0.000          -0.000           1.000       1.439e-05          0.6080
1338       1.255e-02       6.267e-01      -4.639e-07           0.000          -0.000           1.000       4.892e-06          1.5860
Strip 104
1339       2.392e-01       6.277e-01       2.871e-09           0.000           0.000           1.000       1.785e-06          0.0089
1340       2.342e-01       6.277e-01       5.167e-09          -0.000           0.000           1.000       5.250e-06          0.0151
1341       2.229e-01       6.277e-01      -3.562e-09           0.000          -0.000           1.000       8.410e-06          0.0219
1342       2.060e-01       6.277e-01       2.083e-08          -0.000           0.000           1.000       1.108e-05          0.0294
1343       1.844e-01       6.277e-01       3.477e-08           0.000          -0.000           1.000       1.311e-05          0.0381
1344       1.593e-01       6.277e-01       3.291e-07           0.000          -0.000           1.000       1.438e-05          0.0491
1345       1.323e-01       6.277e-01       9.483e-07           0.000           0.000           1.000       1.481e-05          0.0632
1346       1.049e-01       6.277e-01      -1.276e-08          -0.000           0.000           1.000       1.438e-05          0.0817
1347       7.865e-02       6.277e-01      -1.661e-06           0.000          -0.000           1.000       1.311e-05          0.1149
1348       5.513e-02       6.277e-01       2.141e-06          -0.000           0.000           1.000       1.108e-05          0.1817
1349       3.570e-02       6.277e-01      -2.552e-07          -0.000           0.000           1.000       8.410e-06          0.3167
1350       2.148e-02       6.277e-01      -7.767e-07           0.000          -0.000           1.000       5.250e-06          0.5987
1351       1.330e-02       6.277e-01      -4.624e-07           0.000          -0.000           1.000       1.785e-06          1.5085
Strip 105
1352       2.392e-01       6.294e-01       2.846e-09           0.000           0.000           1.000       9.338e-06          0.0085
1353       2.343e-01       6.294e-01       5.122e-09          -0.000           0.000           1.000       2.747e-05          0.0143
1354       2.231e-01       6.294e-01      -3.531e-09           0.000          -0.000           1.000       4.401e-05          0.0206
1355       2.063e-01       6.294e-01       2.065e-08          -0.000           0.000           1.000       5.799e-05          0.0276
1356       1.849e-01       6.294e-01       3.448e-08           0.000          -0.000           1.000       6.860e-05          0.0358
1357       1.600e-01       6.294e-01       3.263e-07           0.000          -0.000           1.000       7.522e-05          0.0460
1358       1.332e-01       6.294e-01       9.402e-07           0.000           0.000           1.000       7.747e-05          0.0591
1359       1.060e-01       6.294e-01      -1.265e-08          -0.000           0.000           1.000       7.522e-05          0.0761
1360       8.003e-02       6.294e-01      -1.647e-06           0.000          -0.000           1.000       6.860e-05          0.1066
1361       5.672e-02       6.294e-01       2.122e-06          -0.000           0.000           1.000       5.799e-05          0.1699
1362       3.745e-02       6.294e-01      -2.530e-07          -0.000           0.000           1.000       4.401e-05          0.3021
1363       2.335e-02       6.294e-01      -7.700e-07           0.000          -0.000           1.000       2.747e-05          0.5803
1364       1.524e-02       6.294e-01      -4.584e-07           0.000          -0.000           1.000       9.338e-06          1.4636
Strip 106
1365       2.392e-01       6.314e-01       2.815e-09           0.000           0.000           1.000       3.825e-06          0.0078
1366       2.343e-01       6.314e-01       5.066e-09          -0.000           0.000           1.000       1.125e-05          0.0130
1367       2.233e-01       6.314e-01      -3.492e-09           0.000          -0.000           1.000       1.803e-05          0.0186
1368       2.067e-01       6.314e-01       2.043e-08          -0.000           0.000           1.000       2.375e-05          0.0249
1369       1.855e-01       6.314e-01       3.410e-08           0.000          -0.000           1.000       2.810e-05          0.0322
1370       1.609e-01       6.314e-01       3.227e-07           0.000          -0.000           1.000       3.081e-05          0.0413
1371       1.344e-01       6.314e-01       9.299e-07           0.000           0.000           1.000       3.174e-05          0.0529
1372       1.075e-01       6.314e-01      -1.251e-08          -0.000           0.000           1.000       3.081e-05          0.0677
1373       8.179e-02       6.314e-01      -1.629e-06           0.000          -0.000           1.000       2.810e-05          0.0941
1374       5.873e-02       6.314e-01       2.099e-06          -0.000           0.000           1.000       2.375e-05          0.1503
1375       3.968e-02       6.314e-01      -2.502e-07          -0.000           0.000           1.000       1.803e-05          0.2780
1376       2.574e-02       6.314e-01      -7.615e-07           0.000          -0.000           1.000       1.125e-05          0.5419
1377       1.772e-02       6.314e-01      -4.534e-07           0.000          -0.000           1.000       3.825e-06          1.4050
Strip 107
1378       2.392e-01       6.334e-01       2.775e-09           0.000           0.000           1.000       9.103e-06          0.0071
1379       2.344e-01       6.334e-01       4.994e-09          -0.000           0.000           1.000       2.678e-05          0.0116
1380       2.235e-01       6.334e-01      -3.443e-09           0.000          -0.000           1.000       4.290e-05          0.0165
1381       2.071e-01       6.334e-01       2.014e-08          -0.000           0.000           1.000       5.653e-05          0.0220
1382       1.862e-01       6.334e-01       3.361e-08           0.000          -0.000           1.000       6.687e-05          0.0284
1383       1.620e-01       6.334e-01       3.181e-07           0.000          -0.000           1.000       7.333e-05          0.0363
1384       1.359e-01       6.334e-01       9.166e-07           0.000           0.000           1.000       7.552e-05          0.0463
1385       1.094e-01       6.334e-01      -1.233e-08          -0.000           0.000           1.000       7.333e-05          0.0589
1386       8.405e-02       6.334e-01      -1.605e-06           0.000          -0.000           1.000       6.687e-05          0.0810
1387       6.132e-02       6.334e-01       2.069e-06          -0.000           0.000           1.000       5.653e-05          0.1288
1388       4.254e-02       6.334e-01      -2.466e-07          -0.000           0.000           1.000       4.290e-05          0.2503
1389       2.879e-02       6.334e-01      -7.507e-07           0.000          -0.000           1.000       2.678e-05          0.5004
1390       2.089e-02       6.334e-01      -4.469e-07           0.000          -0.000           1.000       9.103e-06          1.3479
Strip 108
1391       2.392e-01       6.354e-01       2.731e-09           0.000           0.000           1.000       3.711e-06          0.0062
1392       2.345e-01       6.354e-01       4.915e-09          -0.000           0.000           1.000       1.092e-05          0.0099
1393       2.238e-01       6.354e-01      -3.388e-09           0.000          -0.000           1.000       1.749e-05          0.0140
1394       2.077e-01       6.354e-01       1.982e-08          -0.000           0.000           1.000       2.305e-05          0.0185
1395       1.871e-01       6.354e-01       3.308e-08           0.000          -0.000           1.000       2.726e-05          0.0238
1396       1.633e-01       6.354e-01       3.131e-07           0.000          -0.000           1.000       2.989e-05          0.0303
1397       1.376e-01       6.354e-01       9.021e-07           0.000           0.000           1.000       3.079e-05          0.0385
1398       1.115e-01       6.354e-01      -1.214e-08          -0.000           0.000           1.000       2.989e-05          0.0484
1399       8.651e-02       6.354e-01      -1.580e-06           0.000          -0.000           1.000       2.726e-05          0.0657
1400       6.414e-02       6.354e-01       2.036e-06          -0.000           0.000           1.000       2.305e-05          0.1034
1401       4.566e-02       6.354e-01      -2.427e-07          -0.000           0.000           1.000       1.749e-05          0.2226
1402       3.213e-02       6.354e-01      -7.388e-07           0.000          -0.000           1.000       1.092e-05          0.4374
1403       2.435e-02       6.354e-01      -4.398e-07           0.000          -0.000           1.000       3.711e-06          1.2207
Strip 109
1404       2.392e-01       6.374e-01       2.643e-09           0.000           0.000           1.000       8.671e-06          0.0051
1405       2.347e-01       6.374e-01       4.756e-09          -0.000           0.000           1.000       2.551e-05          0.0080
1406       2.243e-01       6.374e-01      -3.279e-09           0.000          -0.000           1.000       4.086e-05          0.0112
1407       2.087e-01       6.374e-01       1.918e-08          -0.000           0.000           1.000       5.384e-05          0.0148
1408       1.888e-01       6.374e-01       3.201e-08           0.000          -0.000           1.000       6.369e-05          0.0190
1409       1.657e-01       6.374e-01       3.030e-07           0.000          -0.000           1.000       6.984e-05          0.0240
1410       1.409e-01       6.374e-01       8.730e-07           0.000           0.000           1.000       7.193e-05          0.0301
1411       1.156e-01       6.374e-01      -1.175e-08          -0.000           0.000           1.000       6.984e-05          0.0370
1412       9.147e-02       6.374e-01      -1.529e-06           0.000          -0.001           1.000       6.369e-05          0.0484
1413       6.982e-02       6.374e-01       1.971e-06          -0.000           0.001           1.000       5.384e-05          0.0710
1414       5.193e-02       6.374e-01      -2.349e-07          -0.000           0.000           1.000       4.086e-05          0.1630
1415       3.884e-02       6.374e-01      -7.150e-07           0.000          -0.000           1.000       2.551e-05          0.4371
1416       3.131e-02       6.374e-01      -4.256e-07           0.000          -0.001           1.000       8.671e-06          1.0564
Strip 110
1417       2.393e-01       6.394e-01       2.536e-09           0.000           0.000           1.000       3.447e-06          0.0033
1418       2.349e-01       6.394e-01       4.565e-09          -0.000           0.000           1.000       1.014e-05          0.0049
1419       2.249e-01       6.394e-01      -3.147e-09           0.000          -0.000           1.000       1.624e-05          0.0069
1420       2.100e-01       6.394e-01       1.841e-08          -0.000           0.000           1.000       2.140e-05          0.0090
1421       1.909e-01       6.394e-01       3.072e-08           0.000          -0.000           1.000       2.532e-05          0.0115
1422       1.687e-01       6.394e-01       2.907e-07           0.000          -0.000           1.000       2.776e-05          0.0145
1423       1.449e-01       6.394e-01       8.378e-07           0.000           0.000           1.000       2.860e-05          0.0179
1424       1.206e-01       6.394e-01      -1.127e-08          -0.000           0.000           1.000       2.776e-05          0.0216
1425       9.745e-02       6.394e-01      -1.467e-06           0.000          -0.001           1.000       2.532e-05          0.0275
1426       7.667e-02       6.394e-01       1.891e-06          -0.000           0.001           1.000       2.140e-05          0.0381
1427       5.951e-02       6.394e-01      -2.255e-07          -0.000           0.000           1.000       1.624e-05          0.0696
1428       4.694e-02       6.394e-01      -6.862e-07           0.000          -0.000           1.000       1.014e-05          0.2178
1429       3.972e-02       6.394e-01      -4.085e-07           0.000          -0.001           1.000       3.447e-06          1.0649










