xflr5 v6.50

Plane Name
T1-44.0 m/s-VLM1
QInf  =   44.000000 m/s
Alpha =   -3.000000
Beta  =    0.000°
Phi   =    0.000°
Ctrl  =    0.000
CL    =   -0.224027
Cy    =    0.000000
Cd    =    0.009728     ICd   =    0.002717     PCd   =    0.007011
Cl   = 2.32071e-16
Cm   =   0.0540942
ICn   =   -0.000000     PCn   =    0.000000 
XCP   =    0.057808     YCP   =    0.000000     ZCP   =   -0.000000  
XNP   =    0.000000
Bending =   -7.144596

Main Wing
  y-span        Chord      Ai         Cl        PCd          ICd        CmGeom    CmAirf@chord/4    XTrtop    XTrBot      XCP       BM
   -0.6394     0.2025     1.171   -0.027151    0.007381    0.000555    0.009388   -0.002593     0.6846    0.6729    0.1545    0.0000
   -0.6374     0.2110     1.162   -0.043387    0.007259    0.000880    0.013351   -0.003608     0.6855    0.6667    0.1668   -0.0000
   -0.6354     0.2180     1.155   -0.052708    0.007174    0.001063    0.014773   -0.003846     0.6854    0.6626    0.1770   -0.0001
   -0.6334     0.2215     1.148   -0.061297    0.007136    0.001228    0.016413   -0.004147     0.6862    0.6598    0.1823   -0.0002
   -0.6314     0.2247     1.141   -0.068002    0.007101    0.001355    0.017472   -0.004266     0.6868    0.6575    0.1873   -0.0004
   -0.6294     0.2272     1.135   -0.074237    0.007073    0.001470    0.018480   -0.004364     0.6875    0.6556    0.1912   -0.0006
   -0.6277     0.2292     1.129   -0.078119    0.007050    0.001540    0.018929   -0.004389     0.6878    0.6543    0.1938   -0.0009
   -0.6267     0.2300     1.126   -0.081706    0.007042    0.001606    0.019667   -0.004438     0.6884    0.6533    0.1957   -0.0011
   -0.6250     0.2313     1.121   -0.086151    0.007027    0.001685    0.020428   -0.004476     0.6890    0.6521    0.1980   -0.0015
   -0.6239     0.2321     1.117   -0.087777    0.007017    0.001712    0.020575   -0.004469     0.6891    0.6515    0.1991   -0.0018
   -0.6237     0.2323     1.116   -0.089146    0.007015    0.001737    0.020892   -0.004471     0.6894    0.6512    0.1998   -0.0019
   -0.6231     0.2326     1.115   -0.090860    0.007010    0.001768    0.021224   -0.004468     0.6896    0.6507    0.2008   -0.0020
   -0.6224     0.2332     1.113   -0.092846    0.007003    0.001803    0.021567   -0.004458     0.6899    0.6502    0.2020   -0.0022
   -0.6215     0.2339     1.110   -0.095018    0.006995    0.001841    0.021910   -0.004439     0.6902    0.6496    0.2033   -0.0025
   -0.6205     0.2346     1.107   -0.097197    0.006986    0.001878    0.022218   -0.004413     0.6905    0.6489    0.2046   -0.0029
   -0.6200     0.2350     1.105   -0.097880    0.006981    0.001861    0.022197   -0.004403     0.6905    0.6487    0.2049   -0.0031
   -0.6199     0.2350     1.105   -0.098220    0.006981    0.001895    0.022318   -0.004401     0.6906    0.6486    0.2052   -0.0031
   -0.6198     0.2351     1.105   -0.098785    0.006980    0.001905    0.022449   -0.004398     0.6907    0.6485    0.2055   -0.0031
   -0.6196     0.2352     1.104   -0.099442    0.006979    0.001916    0.022588   -0.004395     0.6908    0.6483    0.2058   -0.0032
   -0.6193     0.2353     1.103   -0.100194    0.006977    0.001929    0.022738   -0.004391     0.6910    0.6481    0.2062   -0.0033
   -0.6190     0.2355     1.102   -0.101040    0.006975    0.001944    0.022901   -0.004387     0.6911    0.6479    0.2066   -0.0034
   -0.6186     0.2357     1.101   -0.101974    0.006973    0.001960    0.023076   -0.004382     0.6913    0.6477    0.2070   -0.0036
   -0.6182     0.2359     1.100   -0.102986    0.006970    0.001977    0.023261   -0.004376     0.6914    0.6474    0.2075   -0.0038
   -0.6178     0.2361     1.098   -0.104062    0.006967    0.001995    0.023454   -0.004369     0.6916    0.6471    0.2080   -0.0040
   -0.6173     0.2364     1.097   -0.105182    0.006964    0.002014    0.023651   -0.004361     0.6918    0.6469    0.2085   -0.0042
   -0.6168     0.2366     1.095   -0.106324    0.006961    0.002033    0.023847   -0.004353     0.6920    0.6466    0.2091   -0.0044
   -0.6163     0.2369     1.094   -0.107444    0.006957    0.002052    0.024031   -0.004345     0.6922    0.6463    0.2096   -0.0047
   -0.6160     0.2370     1.093   -0.107904    0.006956    0.002039    0.024075   -0.004343     0.6922    0.6461    0.2097   -0.0048
   -0.6159     0.2370     1.093   -0.108198    0.006955    0.002064    0.024160   -0.004342     0.6923    0.6461    0.2099   -0.0048
   -0.6158     0.2371     1.092   -0.108644    0.006955    0.002072    0.024263   -0.004342     0.6924    0.6460    0.2100   -0.0049
   -0.6156     0.2371     1.092   -0.109201    0.006954    0.002081    0.024386   -0.004342     0.6925    0.6458    0.2102   -0.0050
   -0.6153     0.2372     1.091   -0.109874    0.006953    0.002093    0.024531   -0.004343     0.6926    0.6457    0.2105   -0.0051
   -0.6150     0.2372     1.090   -0.110661    0.006952    0.002106    0.024699   -0.004344     0.6928    0.6455    0.2107   -0.0053
   -0.6146     0.2373     1.089   -0.111553    0.006951    0.002120    0.024887   -0.004345     0.6930    0.6453    0.2111   -0.0055
   -0.6142     0.2374     1.088   -0.112540    0.006950    0.002137    0.025094   -0.004346     0.6932    0.6451    0.2114   -0.0057
   -0.6138     0.2376     1.086   -0.113607    0.006948    0.002154    0.025317   -0.004346     0.6934    0.6449    0.2117   -0.0059
   -0.6133     0.2377     1.085   -0.114739    0.006947    0.002173    0.025554   -0.004346     0.6936    0.6446    0.2121   -0.0062
   -0.6128     0.2378     1.083   -0.115919    0.006946    0.002192    0.025799   -0.004345     0.6939    0.6443    0.2125   -0.0065
   -0.6123     0.2379     1.082   -0.117119    0.006946    0.002212    0.026048   -0.004342     0.6941    0.6440    0.2129   -0.0068
   -0.6119     0.2380     1.081   -0.117932    0.006945    0.002225    0.026217   -0.004340     0.6943    0.6438    0.2132   -0.0070
   -0.6117     0.2381     1.080   -0.118701    0.006945    0.002238    0.026386   -0.004338     0.6944    0.6437    0.2135   -0.0072
   -0.6111     0.2382     1.079   -0.119933    0.006944    0.002258    0.026642   -0.004334     0.6947    0.6434    0.2139   -0.0075
   -0.6104     0.2384     1.076   -0.121598    0.006943    0.002285    0.026985   -0.004326     0.6951    0.6430    0.2144   -0.0080
   -0.6095     0.2386     1.074   -0.123623    0.006942    0.002317    0.027399   -0.004314     0.6955    0.6425    0.2151   -0.0086
   -0.6085     0.2389     1.071   -0.125907    0.006942    0.002353    0.027867   -0.004298     0.6960    0.6420    0.2159   -0.0093
   -0.6077     0.2391     1.068   -0.127976    0.006942    0.002387    0.028304   -0.004281     0.6964    0.6415    0.2165   -0.0099
   -0.6067     0.2393     1.065   -0.130300    0.006941    0.002423    0.028777   -0.004262     0.6969    0.6409    0.2173   -0.0107
   -0.6050     0.2397     1.060   -0.134161    0.006941    0.002483    0.029542   -0.004229     0.6977    0.6400    0.2185   -0.0121
   -0.6037     0.2400     1.056   -0.137473    0.006941    0.002535    0.030235   -0.004224     0.6985    0.6393    0.2193   -0.0133
   -0.6027     0.2400     1.053   -0.140868    0.006944    0.002590    0.031073   -0.004235     0.6993    0.6386    0.2199   -0.0142
   -0.6010     0.2400     1.048   -0.146803    0.006948    0.002685    0.032524   -0.004268     0.7007    0.6374    0.2209   -0.0159
   -0.5772     0.2400     0.997   -0.159275    0.006958    0.002771    0.035570   -0.004340     0.7037    0.6348    0.2228   -0.0413
   -0.4893     0.2400     0.845   -0.204570    0.006999    0.003018    0.047967   -0.003267     0.7145    0.6229    0.2340   -0.3170
   -0.3269     0.2400     0.674   -0.239701    0.007019    0.002821    0.058229   -0.001788     0.7232    0.6121    0.2425   -2.0559
   -0.1148     0.2400     0.581   -0.255430    0.007017    0.002592    0.062795   -0.001155     0.7273    0.6067    0.2455   -7.1446
    0.1148     0.2400     0.581   -0.255430    0.007017    0.002592    0.062795   -0.001155     0.7273    0.6067    0.2455   -7.1446
    0.3269     0.2400     0.674   -0.239701    0.007019    0.002821    0.058229   -0.001788     0.7232    0.6121    0.2425   -2.0559
    0.4893     0.2400     0.845   -0.204570    0.006999    0.003018    0.047967   -0.003267     0.7145    0.6229    0.2340   -0.3170
    0.5772     0.2400     0.997   -0.159275    0.006958    0.002771    0.035570   -0.004340     0.7037    0.6348    0.2228   -0.0413
    0.6010     0.2400     1.048   -0.146803    0.006948    0.002685    0.032524   -0.004268     0.7007    0.6374    0.2209   -0.0159
    0.6027     0.2400     1.053   -0.140868    0.006944    0.002590    0.031073   -0.004235     0.6993    0.6386    0.2199   -0.0142
    0.6037     0.2400     1.056   -0.137473    0.006941    0.002535    0.030235   -0.004224     0.6985    0.6393    0.2193   -0.0133
    0.6050     0.2397     1.060   -0.134161    0.006941    0.002483    0.029542   -0.004229     0.6977    0.6400    0.2185   -0.0121
    0.6067     0.2393     1.065   -0.130300    0.006941    0.002423    0.028777   -0.004262     0.6969    0.6409    0.2173   -0.0107
    0.6077     0.2391     1.068   -0.127976    0.006942    0.002387    0.028304   -0.004281     0.6964    0.6415    0.2165   -0.0099
    0.6085     0.2389     1.071   -0.125907    0.006942    0.002353    0.027867   -0.004298     0.6960    0.6420    0.2159   -0.0093
    0.6095     0.2386     1.074   -0.123623    0.006942    0.002317    0.027399   -0.004314     0.6955    0.6425    0.2151   -0.0086
    0.6104     0.2384     1.076   -0.121598    0.006943    0.002285    0.026985   -0.004326     0.6951    0.6430    0.2144   -0.0080
    0.6111     0.2382     1.079   -0.119933    0.006944    0.002258    0.026642   -0.004334     0.6947    0.6434    0.2139   -0.0075
    0.6117     0.2381     1.080   -0.118701    0.006945    0.002238    0.026386   -0.004338     0.6944    0.6437    0.2135   -0.0072
    0.6119     0.2380     1.081   -0.117932    0.006945    0.002225    0.026217   -0.004340     0.6943    0.6438    0.2132   -0.0070
    0.6123     0.2379     1.082   -0.117119    0.006946    0.002212    0.026048   -0.004342     0.6941    0.6440    0.2129   -0.0068
    0.6128     0.2378     1.083   -0.115919    0.006946    0.002192    0.025799   -0.004345     0.6939    0.6443    0.2125   -0.0065
    0.6133     0.2377     1.085   -0.114739    0.006947    0.002173    0.025554   -0.004346     0.6936    0.6446    0.2121   -0.0062
    0.6138     0.2376     1.086   -0.113607    0.006948    0.002154    0.025317   -0.004346     0.6934    0.6449    0.2117   -0.0059
    0.6142     0.2374     1.088   -0.112540    0.006950    0.002137    0.025094   -0.004346     0.6932    0.6451    0.2114   -0.0057
    0.6146     0.2373     1.089   -0.111553    0.006951    0.002120    0.024887   -0.004345     0.6930    0.6453    0.2111   -0.0055
    0.6150     0.2372     1.090   -0.110661    0.006952    0.002106    0.024699   -0.004344     0.6928    0.6455    0.2107   -0.0053
    0.6153     0.2372     1.091   -0.109874    0.006953    0.002093    0.024531   -0.004343     0.6926    0.6457    0.2105   -0.0051
    0.6156     0.2371     1.092   -0.109201    0.006954    0.002081    0.024386   -0.004342     0.6925    0.6458    0.2102   -0.0050
    0.6158     0.2371     1.092   -0.108644    0.006955    0.002072    0.024263   -0.004342     0.6924    0.6460    0.2100   -0.0049
    0.6159     0.2370     1.093   -0.108198    0.006955    0.002064    0.024160   -0.004342     0.6923    0.6461    0.2099   -0.0048
    0.6160     0.2370     1.093   -0.107904    0.006956    0.002039    0.024075   -0.004343     0.6922    0.6461    0.2097   -0.0048
    0.6163     0.2369     1.094   -0.107444    0.006957    0.002052    0.024031   -0.004345     0.6922    0.6463    0.2096   -0.0047
    0.6168     0.2366     1.095   -0.106324    0.006961    0.002033    0.023847   -0.004353     0.6920    0.6466    0.2091   -0.0044
    0.6173     0.2364     1.097   -0.105182    0.006964    0.002014    0.023651   -0.004361     0.6918    0.6469    0.2085   -0.0042
    0.6178     0.2361     1.098   -0.104062    0.006967    0.001995    0.023454   -0.004369     0.6916    0.6471    0.2080   -0.0040
    0.6182     0.2359     1.100   -0.102986    0.006970    0.001977    0.023261   -0.004376     0.6914    0.6474    0.2075   -0.0038
    0.6186     0.2357     1.101   -0.101974    0.006973    0.001960    0.023076   -0.004382     0.6913    0.6477    0.2070   -0.0036
    0.6190     0.2355     1.102   -0.101040    0.006975    0.001944    0.022901   -0.004387     0.6911    0.6479    0.2066   -0.0034
    0.6193     0.2353     1.103   -0.100194    0.006977    0.001929    0.022738   -0.004391     0.6910    0.6481    0.2062   -0.0033
    0.6196     0.2352     1.104   -0.099442    0.006979    0.001916    0.022588   -0.004395     0.6908    0.6483    0.2058   -0.0032
    0.6198     0.2351     1.105   -0.098785    0.006980    0.001905    0.022449   -0.004398     0.6907    0.6485    0.2055   -0.0031
    0.6199     0.2350     1.105   -0.098220    0.006981    0.001895    0.022318   -0.004401     0.6906    0.6486    0.2052   -0.0031
    0.6200     0.2350     1.105   -0.097880    0.006981    0.001861    0.022197   -0.004403     0.6905    0.6487    0.2049   -0.0031
    0.6205     0.2346     1.107   -0.097197    0.006986    0.001878    0.022218   -0.004413     0.6905    0.6489    0.2046   -0.0029
    0.6215     0.2339     1.110   -0.095018    0.006995    0.001841    0.021910   -0.004439     0.6902    0.6496    0.2033   -0.0025
    0.6224     0.2332     1.113   -0.092846    0.007003    0.001803    0.021567   -0.004458     0.6899    0.6502    0.2020   -0.0022
    0.6231     0.2326     1.115   -0.090860    0.007010    0.001768    0.021224   -0.004468     0.6896    0.6507    0.2008   -0.0020
    0.6237     0.2323     1.116   -0.089146    0.007015    0.001737    0.020892   -0.004471     0.6894    0.6512    0.1998   -0.0019
    0.6239     0.2321     1.117   -0.087777    0.007017    0.001712    0.020575   -0.004469     0.6891    0.6515    0.1991   -0.0018
    0.6250     0.2313     1.121   -0.086151    0.007027    0.001685    0.020428   -0.004476     0.6890    0.6521    0.1980   -0.0015
    0.6267     0.2300     1.126   -0.081706    0.007042    0.001606    0.019667   -0.004438     0.6884    0.6533    0.1957   -0.0011
    0.6277     0.2292     1.129   -0.078119    0.007050    0.001540    0.018929   -0.004389     0.6878    0.6543    0.1938   -0.0009
    0.6294     0.2272     1.135   -0.074237    0.007073    0.001470    0.018480   -0.004364     0.6875    0.6556    0.1912   -0.0006
    0.6314     0.2247     1.141   -0.068002    0.007101    0.001355    0.017472   -0.004266     0.6868    0.6575    0.1873   -0.0004
    0.6334     0.2215     1.148   -0.061297    0.007136    0.001228    0.016413   -0.004147     0.6862    0.6598    0.1823   -0.0002
    0.6354     0.2180     1.155   -0.052708    0.007174    0.001063    0.014773   -0.003846     0.6854    0.6626    0.1770   -0.0001
    0.6374     0.2110     1.162   -0.043387    0.007259    0.000880    0.013351   -0.003608     0.6855    0.6667    0.1668   -0.0000
    0.6394     0.2025     1.171   -0.027151    0.007381    0.000555    0.009388   -0.002593     0.6846    0.6729    0.1545    0.0000


Main Wing Cp Coefficients
 Panel     CtrlPt.x        CtrlPt.y        CtrlPt.z       Nx      Ny       Nz        Area       Cp
Main WingCp Coefficients
Strip 1
   0       2.393e-01      -6.394e-01       2.536e-09           0.000          -0.000           1.000       3.447e-06         -0.0020
   1       2.349e-01      -6.394e-01       4.565e-09          -0.000          -0.000           1.000       1.014e-05         -0.0030
   2       2.249e-01      -6.394e-01      -3.147e-09           0.000           0.000           1.000       1.624e-05         -0.0041
   3       2.100e-01      -6.394e-01       1.841e-08          -0.000          -0.000           1.000       2.140e-05         -0.0055
   4       1.909e-01      -6.394e-01       3.072e-08           0.000           0.000           1.000       2.532e-05         -0.0070
   5       1.687e-01      -6.394e-01       2.907e-07           0.000           0.000           1.000       2.776e-05         -0.0087
   6       1.449e-01      -6.394e-01       8.378e-07           0.000          -0.000           1.000       2.860e-05         -0.0106
   7       1.206e-01      -6.394e-01      -1.127e-08          -0.000          -0.000           1.000       2.776e-05         -0.0134
   8       9.745e-02      -6.394e-01      -1.467e-06           0.000           0.001           1.000       2.532e-05         -0.0163
   9       7.667e-02      -6.394e-01       1.891e-06          -0.000          -0.001           1.000       2.140e-05         -0.0229
  10       5.951e-02      -6.394e-01      -2.255e-07          -0.000          -0.000           1.000       1.624e-05         -0.0419
  11       4.694e-02      -6.394e-01      -6.862e-07           0.000           0.000           1.000       1.014e-05         -0.1313
  12       3.972e-02      -6.394e-01      -4.085e-07           0.000           0.001           1.000       3.447e-06         -0.6412
Strip 2
  13       2.392e-01      -6.374e-01       2.643e-09           0.000          -0.000           1.000       8.671e-06         -0.0031
  14       2.347e-01      -6.374e-01       4.756e-09          -0.000          -0.000           1.000       2.551e-05         -0.0048
  15       2.243e-01      -6.374e-01      -3.279e-09           0.000           0.000           1.000       4.086e-05         -0.0067
  16       2.087e-01      -6.374e-01       1.918e-08          -0.000          -0.000           1.000       5.384e-05         -0.0089
  17       1.888e-01      -6.374e-01       3.201e-08           0.000           0.000           1.000       6.369e-05         -0.0115
  18       1.657e-01      -6.374e-01       3.030e-07           0.000           0.000           1.000       6.984e-05         -0.0144
  19       1.409e-01      -6.374e-01       8.730e-07           0.000          -0.000           1.000       7.193e-05         -0.0178
  20       1.156e-01      -6.374e-01      -1.175e-08          -0.000          -0.000           1.000       6.984e-05         -0.0229
  21       9.147e-02      -6.374e-01      -1.529e-06           0.000           0.001           1.000       6.369e-05         -0.0287
  22       6.982e-02      -6.374e-01       1.971e-06          -0.000          -0.001           1.000       5.384e-05         -0.0427
  23       5.193e-02      -6.374e-01      -2.349e-07          -0.000          -0.000           1.000       4.086e-05         -0.0982
  24       3.884e-02      -6.374e-01      -7.150e-07           0.000           0.000           1.000       2.551e-05         -0.2633
  25       3.131e-02      -6.374e-01      -4.256e-07           0.000           0.001           1.000       8.671e-06         -0.6360
Strip 3
  26       2.392e-01      -6.354e-01       2.731e-09           0.000          -0.000           1.000       3.711e-06         -0.0037
  27       2.345e-01      -6.354e-01       4.915e-09          -0.000          -0.000           1.000       1.092e-05         -0.0060
  28       2.238e-01      -6.354e-01      -3.388e-09           0.000           0.000           1.000       1.749e-05         -0.0084
  29       2.077e-01      -6.354e-01       1.982e-08          -0.000          -0.000           1.000       2.305e-05         -0.0112
  30       1.871e-01      -6.354e-01       3.308e-08           0.000           0.000           1.000       2.726e-05         -0.0144
  31       1.633e-01      -6.354e-01       3.131e-07           0.000           0.000           1.000       2.989e-05         -0.0182
  32       1.376e-01      -6.354e-01       9.021e-07           0.000          -0.000           1.000       3.079e-05         -0.0228
  33       1.115e-01      -6.354e-01      -1.214e-08          -0.000          -0.000           1.000       2.989e-05         -0.0299
  34       8.651e-02      -6.354e-01      -1.580e-06           0.000           0.000           1.000       2.726e-05         -0.0389
  35       6.414e-02      -6.354e-01       2.036e-06          -0.000          -0.000           1.000       2.305e-05         -0.0623
  36       4.566e-02      -6.354e-01      -2.427e-07          -0.000          -0.000           1.000       1.749e-05         -0.1342
  37       3.213e-02      -6.354e-01      -7.388e-07           0.000           0.000           1.000       1.092e-05         -0.2635
  38       2.435e-02      -6.354e-01      -4.398e-07           0.000           0.000           1.000       3.711e-06         -0.7344
Strip 4
  39       2.392e-01      -6.334e-01       2.775e-09           0.000          -0.000           1.000       9.103e-06         -0.0042
  40       2.344e-01      -6.334e-01       4.994e-09          -0.000          -0.000           1.000       2.678e-05         -0.0070
  41       2.235e-01      -6.334e-01      -3.443e-09           0.000           0.000           1.000       4.290e-05         -0.0099
  42       2.071e-01      -6.334e-01       2.014e-08          -0.000          -0.000           1.000       5.653e-05         -0.0133
  43       1.862e-01      -6.334e-01       3.361e-08           0.000           0.000           1.000       6.687e-05         -0.0171
  44       1.620e-01      -6.334e-01       3.181e-07           0.000           0.000           1.000       7.333e-05         -0.0217
  45       1.359e-01      -6.334e-01       9.166e-07           0.000          -0.000           1.000       7.552e-05         -0.0275
  46       1.094e-01      -6.334e-01      -1.233e-08          -0.000          -0.000           1.000       7.333e-05         -0.0363
  47       8.405e-02      -6.334e-01      -1.605e-06           0.000           0.000           1.000       6.687e-05         -0.0479
  48       6.132e-02      -6.334e-01       2.069e-06          -0.000          -0.000           1.000       5.653e-05         -0.0776
  49       4.254e-02      -6.334e-01      -2.466e-07          -0.000          -0.000           1.000       4.290e-05         -0.1509
  50       2.879e-02      -6.334e-01      -7.507e-07           0.000           0.000           1.000       2.678e-05         -0.3015
  51       2.089e-02      -6.334e-01      -4.469e-07           0.000           0.000           1.000       9.103e-06         -0.8109
Strip 5
  52       2.392e-01      -6.314e-01       2.815e-09           0.000          -0.000           1.000       3.825e-06         -0.0047
  53       2.343e-01      -6.314e-01       5.066e-09          -0.000          -0.000           1.000       1.125e-05         -0.0078
  54       2.233e-01      -6.314e-01      -3.492e-09           0.000           0.000           1.000       1.803e-05         -0.0112
  55       2.067e-01      -6.314e-01       2.043e-08          -0.000          -0.000           1.000       2.375e-05         -0.0150
  56       1.855e-01      -6.314e-01       3.410e-08           0.000           0.000           1.000       2.810e-05         -0.0194
  57       1.609e-01      -6.314e-01       3.227e-07           0.000           0.000           1.000       3.081e-05         -0.0247
  58       1.344e-01      -6.314e-01       9.299e-07           0.000          -0.000           1.000       3.174e-05         -0.0314
  59       1.075e-01      -6.314e-01      -1.251e-08          -0.000          -0.000           1.000       3.081e-05         -0.0417
  60       8.179e-02      -6.314e-01      -1.629e-06           0.000           0.000           1.000       2.810e-05         -0.0558
  61       5.873e-02      -6.314e-01       2.099e-06          -0.000          -0.000           1.000       2.375e-05         -0.0906
  62       3.968e-02      -6.314e-01      -2.502e-07          -0.000          -0.000           1.000       1.803e-05         -0.1676
  63       2.574e-02      -6.314e-01      -7.615e-07           0.000           0.000           1.000       1.125e-05         -0.3265
  64       1.772e-02      -6.314e-01      -4.534e-07           0.000           0.000           1.000       3.825e-06         -0.8451
Strip 6
  65       2.392e-01      -6.294e-01       2.846e-09           0.000          -0.000           1.000       9.338e-06         -0.0051
  66       2.343e-01      -6.294e-01       5.122e-09          -0.000          -0.000           1.000       2.747e-05         -0.0086
  67       2.231e-01      -6.294e-01      -3.531e-09           0.000           0.000           1.000       4.401e-05         -0.0124
  68       2.063e-01      -6.294e-01       2.065e-08          -0.000          -0.000           1.000       5.799e-05         -0.0166
  69       1.849e-01      -6.294e-01       3.448e-08           0.000           0.000           1.000       6.860e-05         -0.0216
  70       1.600e-01      -6.294e-01       3.263e-07           0.000           0.000           1.000       7.522e-05         -0.0275
  71       1.332e-01      -6.294e-01       9.402e-07           0.000          -0.000           1.000       7.747e-05         -0.0352
  72       1.060e-01      -6.294e-01      -1.265e-08          -0.000          -0.000           1.000       7.522e-05         -0.0468
  73       8.003e-02      -6.294e-01      -1.647e-06           0.000           0.000           1.000       6.860e-05         -0.0632
  74       5.672e-02      -6.294e-01       2.122e-06          -0.000          -0.000           1.000       5.799e-05         -0.1024
  75       3.745e-02      -6.294e-01      -2.530e-07          -0.000          -0.000           1.000       4.401e-05         -0.1821
  76       2.335e-02      -6.294e-01      -7.700e-07           0.000           0.000           1.000       2.747e-05         -0.3496
  77       1.524e-02      -6.294e-01      -4.584e-07           0.000           0.000           1.000       9.338e-06         -0.8803
Strip 7
  78       2.392e-01      -6.277e-01       2.871e-09           0.000          -0.000           1.000       1.785e-06         -0.0053
  79       2.342e-01      -6.277e-01       5.167e-09          -0.000          -0.000           1.000       5.250e-06         -0.0091
  80       2.229e-01      -6.277e-01      -3.562e-09           0.000           0.000           1.000       8.410e-06         -0.0132
  81       2.060e-01      -6.277e-01       2.083e-08          -0.000          -0.000           1.000       1.108e-05         -0.0177
  82       1.844e-01      -6.277e-01       3.477e-08           0.000           0.000           1.000       1.311e-05         -0.0230
  83       1.593e-01      -6.277e-01       3.291e-07           0.000           0.000           1.000       1.438e-05         -0.0294
  84       1.323e-01      -6.277e-01       9.483e-07           0.000          -0.000           1.000       1.481e-05         -0.0376
  85       1.049e-01      -6.277e-01      -1.276e-08          -0.000          -0.000           1.000       1.438e-05         -0.0502
  86       7.865e-02      -6.277e-01      -1.661e-06           0.000           0.000           1.000       1.311e-05         -0.0682
  87       5.513e-02      -6.277e-01       2.141e-06          -0.000          -0.000           1.000       1.108e-05         -0.1095
  88       3.570e-02      -6.277e-01      -2.552e-07          -0.000          -0.000           1.000       8.410e-06         -0.1910
  89       2.148e-02      -6.277e-01      -7.767e-07           0.000           0.000           1.000       5.250e-06         -0.3607
  90       1.330e-02      -6.277e-01      -4.624e-07           0.000           0.000           1.000       1.785e-06         -0.9073
Strip 8
  91       2.392e-01      -6.267e-01       2.880e-09           0.000          -0.000           1.000       4.892e-06         -0.0056
  92       2.342e-01      -6.267e-01       5.184e-09          -0.000          -0.000           1.000       1.439e-05         -0.0095
  93       2.229e-01      -6.267e-01      -3.574e-09           0.000           0.000           1.000       2.305e-05         -0.0139
  94       2.059e-01      -6.267e-01       2.090e-08          -0.000          -0.000           1.000       3.038e-05         -0.0187
  95       1.842e-01      -6.267e-01       3.489e-08           0.000           0.000           1.000       3.593e-05         -0.0243
  96       1.591e-01      -6.267e-01       3.302e-07           0.000           0.000           1.000       3.940e-05         -0.0311
  97       1.320e-01      -6.267e-01       9.514e-07           0.000          -0.000           1.000       4.058e-05         -0.0399
  98       1.044e-01      -6.267e-01      -1.280e-08          -0.000          -0.000           1.000       3.940e-05         -0.0533
  99       7.812e-02      -6.267e-01      -1.666e-06           0.000           0.000           1.000       3.593e-05         -0.0726
 100       5.452e-02      -6.267e-01       2.148e-06          -0.000          -0.000           1.000       3.038e-05         -0.1158
 101       3.503e-02      -6.267e-01      -2.560e-07          -0.000          -0.000           1.000       2.305e-05         -0.1984
 102       2.076e-02      -6.267e-01      -7.792e-07           0.000           0.000           1.000       1.439e-05         -0.3663
 103       1.255e-02      -6.267e-01      -4.639e-07           0.000           0.000           1.000       4.892e-06         -0.9538
Strip 9
 104       2.392e-01      -6.250e-01       2.896e-09           0.000          -0.000           1.000       6.720e-06         -0.0059
 105       2.342e-01      -6.250e-01       5.213e-09          -0.000          -0.000           1.000       1.977e-05         -0.0101
 106       2.228e-01      -6.250e-01      -3.594e-09           0.000           0.000           1.000       3.167e-05         -0.0147
 107       2.057e-01      -6.250e-01       2.102e-08          -0.000          -0.000           1.000       4.173e-05         -0.0199
 108       1.839e-01      -6.250e-01       3.509e-08           0.000           0.000           1.000       4.936e-05         -0.0260
 109       1.586e-01      -6.250e-01       3.320e-07           0.000           0.000           1.000       5.413e-05         -0.0332
 110       1.313e-01      -6.250e-01       9.568e-07           0.000          -0.000           1.000       5.575e-05         -0.0427
 111       1.037e-01      -6.250e-01      -1.288e-08          -0.000          -0.000           1.000       5.413e-05         -0.0573
 112       7.720e-02      -6.250e-01      -1.676e-06           0.000           0.000           1.000       4.936e-05         -0.0782
 113       5.348e-02      -6.250e-01       2.160e-06          -0.000          -0.000           1.000       4.173e-05         -0.1235
 114       3.387e-02      -6.250e-01      -2.575e-07          -0.000          -0.000           1.000       3.167e-05         -0.2072
 115       1.952e-02      -6.250e-01      -7.836e-07           0.000           0.000           1.000       1.977e-05         -0.3789
 116       1.127e-02      -6.250e-01      -4.665e-07           0.000           0.000           1.000       6.720e-06         -0.9940
Strip 10
 117       2.392e-01      -6.239e-01       2.906e-09           0.000          -0.000           1.000       4.595e-07         -0.0060
 118       2.341e-01      -6.239e-01       5.231e-09          -0.000          -0.000           1.000       1.352e-06         -0.0103
 119       2.227e-01      -6.239e-01      -3.606e-09           0.000           0.000           1.000       2.166e-06         -0.0151
 120       2.056e-01      -6.239e-01       2.109e-08          -0.000          -0.000           1.000       2.854e-06         -0.0204
 121       1.837e-01      -6.239e-01       3.521e-08           0.000           0.000           1.000       3.376e-06         -0.0266
 122       1.583e-01      -6.239e-01       3.332e-07           0.000           0.000           1.000       3.702e-06         -0.0340
 123       1.310e-01      -6.239e-01       9.601e-07           0.000          -0.000           1.000       3.812e-06         -0.0438
 124       1.032e-01      -6.239e-01      -1.292e-08          -0.000          -0.000           1.000       3.702e-06         -0.0587
 125       7.664e-02      -6.239e-01      -1.682e-06           0.000           0.000           1.000       3.376e-06         -0.0803
 126       5.283e-02      -6.239e-01       2.167e-06          -0.000          -0.000           1.000       2.854e-06         -0.1264
 127       3.316e-02      -6.239e-01      -2.584e-07          -0.000          -0.000           1.000       2.166e-06         -0.2107
 128       1.876e-02      -6.239e-01      -7.863e-07           0.000           0.000           1.000       1.352e-06         -0.3848
 129       1.048e-02      -6.239e-01      -4.681e-07           0.000           0.000           1.000       4.595e-07         -0.9989
Strip 11
 130       2.392e-01      -6.237e-01       2.909e-09           0.000           0.000           1.000       1.348e-06         -0.0061
 131       2.341e-01      -6.237e-01       5.236e-09          -0.000          -0.000           1.000       3.967e-06         -0.0105
 132       2.227e-01      -6.237e-01      -3.609e-09           0.000           0.000           1.000       6.355e-06         -0.0153
 133       2.056e-01      -6.237e-01       2.111e-08          -0.000          -0.000           1.000       8.373e-06         -0.0208
 134       1.836e-01      -6.237e-01       3.524e-08           0.000           0.000           1.000       9.905e-06         -0.0271
 135       1.583e-01      -6.237e-01       3.335e-07           0.000           0.000           1.000       1.086e-05         -0.0347
 136       1.309e-01      -6.237e-01       9.610e-07           0.000          -0.000           1.000       1.119e-05         -0.0447
 137       1.031e-01      -6.237e-01      -1.293e-08          -0.000          -0.000           1.000       1.086e-05         -0.0600
 138       7.650e-02      -6.237e-01      -1.683e-06           0.000           0.000           1.000       9.905e-06         -0.0822
 139       5.267e-02      -6.237e-01       2.169e-06          -0.000          -0.000           1.000       8.373e-06         -0.1288
 140       3.298e-02      -6.237e-01      -2.586e-07          -0.000          -0.000           1.000       6.355e-06         -0.2140
 141       1.857e-02      -6.237e-01      -7.870e-07           0.000           0.000           1.000       3.967e-06         -0.3901
 142       1.028e-02      -6.237e-01      -4.685e-07           0.000           0.000           1.000       1.348e-06         -1.0043
Strip 12
 143       2.392e-01      -6.231e-01       2.914e-09           0.000          -0.000           1.000       2.149e-06         -0.0062
 144       2.341e-01      -6.231e-01       5.244e-09          -0.000          -0.000           1.000       6.321e-06         -0.0107
 145       2.227e-01      -6.231e-01      -3.615e-09           0.000           0.000           1.000       1.013e-05         -0.0157
 146       2.055e-01      -6.231e-01       2.115e-08          -0.000          -0.000           1.000       1.334e-05         -0.0212
 147       1.835e-01      -6.231e-01       3.530e-08           0.000           0.000           1.000       1.578e-05         -0.0277
 148       1.581e-01      -6.231e-01       3.340e-07           0.000           0.000           1.000       1.731e-05         -0.0356
 149       1.307e-01      -6.231e-01       9.626e-07           0.000          -0.000           1.000       1.783e-05         -0.0459
 150       1.029e-01      -6.231e-01      -1.295e-08          -0.000          -0.000           1.000       1.731e-05         -0.0616
 151       7.622e-02      -6.231e-01      -1.686e-06           0.000           0.000           1.000       1.578e-05         -0.0844
 152       5.236e-02      -6.231e-01       2.173e-06          -0.000          -0.000           1.000       1.334e-05         -0.1319
 153       3.263e-02      -6.231e-01      -2.590e-07          -0.000          -0.000           1.000       1.013e-05         -0.2180
 154       1.820e-02      -6.231e-01      -7.883e-07           0.000           0.000           1.000       6.321e-06         -0.3968
 155       9.895e-03      -6.231e-01      -4.693e-07           0.000           0.000           1.000       2.149e-06         -1.0090
Strip 13
 156       2.392e-01      -6.224e-01       2.921e-09           0.000          -0.000           1.000       2.807e-06         -0.0063
 157       2.341e-01      -6.224e-01       5.257e-09          -0.000          -0.000           1.000       8.257e-06         -0.0110
 158       2.227e-01      -6.224e-01      -3.624e-09           0.000           0.000           1.000       1.323e-05         -0.0161
 159       2.054e-01      -6.224e-01       2.120e-08          -0.000          -0.000           1.000       1.743e-05         -0.0218
 160       1.834e-01      -6.224e-01       3.538e-08           0.000           0.000           1.000       2.062e-05         -0.0285
 161       1.579e-01      -6.224e-01       3.348e-07           0.000           0.000           1.000       2.261e-05         -0.0366
 162       1.304e-01      -6.224e-01       9.648e-07           0.000          -0.000           1.000       2.329e-05         -0.0472
 163       1.025e-01      -6.224e-01      -1.298e-08          -0.000          -0.000           1.000       2.261e-05         -0.0634
 164       7.584e-02      -6.224e-01      -1.690e-06           0.000           0.000           1.000       2.062e-05         -0.0870
 165       5.191e-02      -6.224e-01       2.178e-06          -0.000          -0.000           1.000       1.743e-05         -0.1355
 166       3.214e-02      -6.224e-01      -2.596e-07          -0.000          -0.000           1.000       1.323e-05         -0.2229
 167       1.767e-02      -6.224e-01      -7.902e-07           0.000           0.000           1.000       8.257e-06         -0.4047
 168       9.352e-03      -6.224e-01      -4.704e-07           0.000           0.000           1.000       2.807e-06         -1.0118
Strip 14
 169       2.392e-01      -6.215e-01       2.929e-09           0.000          -0.000           1.000       3.278e-06         -0.0065
 170       2.341e-01      -6.215e-01       5.272e-09          -0.000          -0.000           1.000       9.643e-06         -0.0113
 171       2.226e-01      -6.215e-01      -3.634e-09           0.000           0.000           1.000       1.545e-05         -0.0165
 172       2.053e-01      -6.215e-01       2.126e-08          -0.000          -0.000           1.000       2.036e-05         -0.0224
 173       1.833e-01      -6.215e-01       3.548e-08           0.000           0.000           1.000       2.408e-05         -0.0293
 174       1.577e-01      -6.215e-01       3.358e-07           0.000           0.000           1.000       2.640e-05         -0.0377
 175       1.301e-01      -6.215e-01       9.676e-07           0.000          -0.000           1.000       2.719e-05         -0.0487
 176       1.021e-01      -6.215e-01      -1.302e-08          -0.000          -0.000           1.000       2.640e-05         -0.0655
 177       7.536e-02      -6.215e-01      -1.695e-06           0.000           0.000           1.000       2.408e-05         -0.0899
 178       5.137e-02      -6.215e-01       2.184e-06          -0.000          -0.000           1.000       2.036e-05         -0.1395
 179       3.154e-02      -6.215e-01      -2.604e-07          -0.000          -0.000           1.000       1.545e-05         -0.2284
 180       1.703e-02      -6.215e-01      -7.925e-07           0.000           0.000           1.000       9.643e-06         -0.4137
 181       8.687e-03      -6.215e-01      -4.718e-07           0.000           0.000           1.000       3.278e-06         -1.0116
Strip 15
 182       2.391e-01      -6.205e-01       2.938e-09           0.000          -0.000           1.000       3.529e-06         -0.0066
 183       2.341e-01      -6.205e-01       5.289e-09          -0.000          -0.000           1.000       1.038e-05         -0.0115
 184       2.225e-01      -6.205e-01      -3.646e-09           0.000           0.000           1.000       1.663e-05         -0.0170
 185       2.052e-01      -6.205e-01       2.132e-08          -0.000          -0.000           1.000       2.191e-05         -0.0231
 186       1.831e-01      -6.205e-01       3.560e-08           0.000           0.000           1.000       2.592e-05         -0.0302
 187       1.574e-01      -6.205e-01       3.369e-07           0.000           0.000           1.000       2.843e-05         -0.0388
 188       1.298e-01      -6.205e-01       9.707e-07           0.000          -0.000           1.000       2.928e-05         -0.0502
 189       1.017e-01      -6.205e-01      -1.306e-08          -0.000          -0.000           1.000       2.843e-05         -0.0676
 190       7.484e-02      -6.205e-01      -1.700e-06           0.000           0.000           1.000       2.592e-05         -0.0929
 191       5.076e-02      -6.205e-01       2.191e-06          -0.000          -0.000           1.000       2.191e-05         -0.1436
 192       3.087e-02      -6.205e-01      -2.612e-07          -0.000          -0.000           1.000       1.663e-05         -0.2340
 193       1.632e-02      -6.205e-01      -7.950e-07           0.000           0.000           1.000       1.038e-05         -0.4228
 194       7.945e-03      -6.205e-01      -4.733e-07           0.000           0.000           1.000       3.529e-06         -1.0098
Strip 16
 195       2.391e-01      -6.200e-01       2.943e-09           0.000          -0.000           1.000       1.168e-07         -0.0067
 196       2.341e-01      -6.200e-01       5.298e-09          -0.000          -0.000           1.000       3.437e-07         -0.0116
 197       2.225e-01      -6.200e-01      -3.652e-09           0.000           0.000           1.000       5.507e-07         -0.0171
 198       2.051e-01      -6.200e-01       2.136e-08          -0.000          -0.000           1.000       7.256e-07         -0.0232
 199       1.830e-01      -6.200e-01       3.566e-08           0.000           0.000           1.000       8.583e-07         -0.0304
 200       1.573e-01      -6.200e-01       3.374e-07           0.000           0.000           1.000       9.412e-07         -0.0391
 201       1.296e-01      -6.200e-01       9.724e-07           0.000          -0.000           1.000       9.694e-07         -0.0506
 202       1.015e-01      -6.200e-01      -1.309e-08          -0.000          -0.000           1.000       9.412e-07         -0.0681
 203       7.456e-02      -6.200e-01      -1.703e-06           0.000           0.000           1.000       8.583e-07         -0.0936
 204       5.044e-02      -6.200e-01       2.195e-06          -0.000          -0.000           1.000       7.256e-07         -0.1445
 205       3.052e-02      -6.200e-01      -2.617e-07          -0.000          -0.000           1.000       5.507e-07         -0.2352
 206       1.594e-02      -6.200e-01      -7.963e-07           0.000           0.000           1.000       3.437e-07         -0.4242
 207       7.552e-03      -6.200e-01      -4.741e-07           0.000           0.000           1.000       1.168e-07         -1.0109
Strip 17
 208       2.391e-01      -6.199e-01       2.944e-09           0.000           0.000           1.000       3.486e-07         -0.0067
 209       2.341e-01      -6.199e-01       5.299e-09          -0.000          -0.000           1.000       1.025e-06         -0.0117
 210       2.225e-01      -6.199e-01      -3.653e-09           0.000           0.000           1.000       1.643e-06         -0.0172
 211       2.051e-01      -6.199e-01       2.136e-08          -0.000          -0.000           1.000       2.165e-06         -0.0234
 212       1.830e-01      -6.199e-01       3.566e-08           0.000           0.000           1.000       2.561e-06         -0.0306
 213       1.573e-01      -6.199e-01       3.375e-07           0.000           0.000           1.000       2.808e-06         -0.0394
 214       1.296e-01      -6.199e-01       9.725e-07           0.000          -0.000           1.000       2.892e-06         -0.0509
 215       1.014e-01      -6.199e-01      -1.309e-08          -0.000          -0.000           1.000       2.808e-06         -0.0685
 216       7.453e-02      -6.199e-01      -1.703e-06           0.000           0.000           1.000       2.561e-06         -0.0942
 217       5.042e-02      -6.199e-01       2.195e-06          -0.000          -0.000           1.000       2.165e-06         -0.1454
 218       3.049e-02      -6.199e-01      -2.617e-07          -0.000          -0.000           1.000       1.643e-06         -0.2364
 219       1.591e-02      -6.199e-01      -7.965e-07           0.000           0.000           1.000       1.025e-06         -0.4257
 220       7.519e-03      -6.199e-01      -4.742e-07           0.000           0.000           1.000       3.486e-07         -1.0133
Strip 18
 221       2.391e-01      -6.198e-01       2.945e-09           0.000          -0.000           1.000       5.745e-07         -0.0067
 222       2.341e-01      -6.198e-01       5.300e-09          -0.000          -0.000           1.000       1.690e-06         -0.0117
 223       2.225e-01      -6.198e-01      -3.654e-09           0.000           0.000           1.000       2.708e-06         -0.0173
 224       2.051e-01      -6.198e-01       2.137e-08          -0.000          -0.000           1.000       3.568e-06         -0.0235
 225       1.830e-01      -6.198e-01       3.567e-08           0.000           0.000           1.000       4.220e-06         -0.0308
 226       1.573e-01      -6.198e-01       3.376e-07           0.000           0.000           1.000       4.628e-06         -0.0397
 227       1.295e-01      -6.198e-01       9.728e-07           0.000          -0.000           1.000       4.766e-06         -0.0513
 228       1.014e-01      -6.198e-01      -1.309e-08          -0.000          -0.000           1.000       4.628e-06         -0.0691
 229       7.449e-02      -6.198e-01      -1.704e-06           0.000           0.000           1.000       4.220e-06         -0.0950
 230       5.036e-02      -6.198e-01       2.196e-06          -0.000          -0.000           1.000       3.568e-06         -0.1464
 231       3.043e-02      -6.198e-01      -2.618e-07          -0.000          -0.000           1.000       2.708e-06         -0.2378
 232       1.584e-02      -6.198e-01      -7.967e-07           0.000           0.000           1.000       1.690e-06         -0.4272
 233       7.452e-03      -6.198e-01      -4.743e-07           0.000           0.000           1.000       5.745e-07         -1.0167
Strip 19
 234       2.391e-01      -6.196e-01       2.946e-09           0.000          -0.000           1.000       7.908e-07         -0.0068
 235       2.341e-01      -6.196e-01       5.302e-09          -0.000          -0.000           1.000       2.327e-06         -0.0118
 236       2.225e-01      -6.196e-01      -3.655e-09           0.000           0.000           1.000       3.727e-06         -0.0175
 237       2.051e-01      -6.196e-01       2.138e-08          -0.000          -0.000           1.000       4.911e-06         -0.0237
 238       1.829e-01      -6.196e-01       3.569e-08           0.000           0.000           1.000       5.809e-06         -0.0311
 239       1.572e-01      -6.196e-01       3.377e-07           0.000           0.000           1.000       6.370e-06         -0.0400
 240       1.295e-01      -6.196e-01       9.732e-07           0.000          -0.000           1.000       6.561e-06         -0.0517
 241       1.013e-01      -6.196e-01      -1.310e-08          -0.000          -0.000           1.000       6.370e-06         -0.0697
 242       7.442e-02      -6.196e-01      -1.704e-06           0.000           0.000           1.000       5.809e-06         -0.0959
 243       5.028e-02      -6.196e-01       2.197e-06          -0.000          -0.000           1.000       4.911e-06         -0.1476
 244       3.034e-02      -6.196e-01      -2.619e-07          -0.000          -0.000           1.000       3.727e-06         -0.2393
 245       1.575e-02      -6.196e-01      -7.970e-07           0.000           0.000           1.000       2.327e-06         -0.4286
 246       7.353e-03      -6.196e-01      -4.745e-07           0.000           0.000           1.000       7.908e-07         -1.0214
Strip 20
 247       2.391e-01      -6.193e-01       2.948e-09           0.000          -0.000           1.000       9.939e-07         -0.0068
 248       2.341e-01      -6.193e-01       5.305e-09          -0.000          -0.000           1.000       2.924e-06         -0.0119
 249       2.225e-01      -6.193e-01      -3.657e-09           0.000           0.000           1.000       4.684e-06         -0.0176
 250       2.051e-01      -6.193e-01       2.139e-08          -0.000          -0.000           1.000       6.172e-06         -0.0240
 251       1.829e-01      -6.193e-01       3.571e-08           0.000           0.000           1.000       7.301e-06         -0.0314
 252       1.572e-01      -6.193e-01       3.379e-07           0.000           0.000           1.000       8.006e-06         -0.0404
 253       1.294e-01      -6.193e-01       9.737e-07           0.000          -0.000           1.000       8.246e-06         -0.0523
 254       1.013e-01      -6.193e-01      -1.310e-08          -0.000          -0.000           1.000       8.006e-06         -0.0704
 255       7.432e-02      -6.193e-01      -1.705e-06           0.000           0.000           1.000       7.301e-06         -0.0969
 256       5.018e-02      -6.193e-01       2.198e-06          -0.000          -0.000           1.000       6.172e-06         -0.1489
 257       3.022e-02      -6.193e-01      -2.620e-07          -0.000          -0.000           1.000       4.684e-06         -0.2411
 258       1.562e-02      -6.193e-01      -7.975e-07           0.000           0.000           1.000       2.924e-06         -0.4302
 259       7.224e-03      -6.193e-01      -4.748e-07           0.000           0.000           1.000       9.939e-07         -1.0274
Strip 21
 260       2.391e-01      -6.190e-01       2.950e-09           0.000          -0.000           1.000       1.180e-06         -0.0069
 261       2.341e-01      -6.190e-01       5.309e-09          -0.000          -0.000           1.000       3.473e-06         -0.0120
 262       2.225e-01      -6.190e-01      -3.660e-09           0.000           0.000           1.000       5.563e-06         -0.0178
 263       2.051e-01      -6.190e-01       2.141e-08          -0.000          -0.000           1.000       7.330e-06         -0.0242
 264       1.829e-01      -6.190e-01       3.573e-08           0.000           0.000           1.000       8.671e-06         -0.0317
 265       1.571e-01      -6.190e-01       3.381e-07           0.000           0.000           1.000       9.508e-06         -0.0408
 266       1.293e-01      -6.190e-01       9.744e-07           0.000          -0.000           1.000       9.793e-06         -0.0528
 267       1.012e-01      -6.190e-01      -1.311e-08          -0.000          -0.000           1.000       9.508e-06         -0.0712
 268       7.421e-02      -6.190e-01      -1.707e-06           0.000           0.000           1.000       8.671e-06         -0.0980
 269       5.005e-02      -6.190e-01       2.199e-06          -0.000          -0.000           1.000       7.330e-06         -0.1504
 270       3.008e-02      -6.190e-01      -2.622e-07          -0.000          -0.000           1.000       5.563e-06         -0.2430
 271       1.547e-02      -6.190e-01      -7.980e-07           0.000           0.000           1.000       3.473e-06         -0.4319
 272       7.067e-03      -6.190e-01      -4.751e-07           0.000           0.000           1.000       1.180e-06         -1.0342
Strip 22
 273       2.391e-01      -6.186e-01       2.952e-09           0.000          -0.000           1.000       1.347e-06         -0.0070
 274       2.341e-01      -6.186e-01       5.313e-09          -0.000          -0.000           1.000       3.963e-06         -0.0122
 275       2.225e-01      -6.186e-01      -3.663e-09           0.000           0.000           1.000       6.348e-06         -0.0180
 276       2.050e-01      -6.186e-01       2.142e-08          -0.000          -0.000           1.000       8.365e-06         -0.0245
 277       1.828e-01      -6.186e-01       3.576e-08           0.000           0.000           1.000       9.895e-06         -0.0321
 278       1.570e-01      -6.186e-01       3.384e-07           0.000           0.000           1.000       1.085e-05         -0.0413
 279       1.293e-01      -6.186e-01       9.752e-07           0.000          -0.000           1.000       1.118e-05         -0.0535
 280       1.011e-01      -6.186e-01      -1.312e-08          -0.000          -0.000           1.000       1.085e-05         -0.0721
 281       7.408e-02      -6.186e-01      -1.708e-06           0.000           0.000           1.000       9.895e-06         -0.0992
 282       4.990e-02      -6.186e-01       2.201e-06          -0.000          -0.000           1.000       8.365e-06         -0.1520
 283       2.992e-02      -6.186e-01      -2.624e-07          -0.000          -0.000           1.000       6.348e-06         -0.2450
 284       1.530e-02      -6.186e-01      -7.986e-07           0.000           0.000           1.000       3.963e-06         -0.4340
 285       6.884e-03      -6.186e-01      -4.755e-07           0.000           0.000           1.000       1.347e-06         -1.0413
Strip 23
 286       2.391e-01      -6.182e-01       2.954e-09           0.000          -0.000           1.000       1.491e-06         -0.0070
 287       2.341e-01      -6.182e-01       5.318e-09          -0.000          -0.000           1.000       4.386e-06         -0.0123
 288       2.225e-01      -6.182e-01      -3.666e-09           0.000           0.000           1.000       7.027e-06         -0.0182
 289       2.050e-01      -6.182e-01       2.144e-08          -0.000          -0.000           1.000       9.259e-06         -0.0248
 290       1.828e-01      -6.182e-01       3.579e-08           0.000           0.000           1.000       1.095e-05         -0.0325
 291       1.570e-01      -6.182e-01       3.387e-07           0.000           0.000           1.000       1.201e-05         -0.0419
 292       1.292e-01      -6.182e-01       9.760e-07           0.000          -0.000           1.000       1.237e-05         -0.0542
 293       1.009e-01      -6.182e-01      -1.313e-08          -0.000          -0.000           1.000       1.201e-05         -0.0731
 294       7.394e-02      -6.182e-01      -1.709e-06           0.000           0.000           1.000       1.095e-05         -0.1005
 295       4.973e-02      -6.182e-01       2.203e-06          -0.000          -0.000           1.000       9.259e-06         -0.1538
 296       2.973e-02      -6.182e-01      -2.626e-07          -0.000          -0.000           1.000       7.027e-06         -0.2473
 297       1.510e-02      -6.182e-01      -7.993e-07           0.000           0.000           1.000       4.386e-06         -0.4366
 298       6.679e-03      -6.182e-01      -4.759e-07           0.000           0.000           1.000       1.491e-06         -1.0480
Strip 24
 299       2.391e-01      -6.178e-01       2.957e-09           0.000          -0.000           1.000       1.610e-06         -0.0071
 300       2.340e-01      -6.178e-01       5.323e-09          -0.000          -0.000           1.000       4.736e-06         -0.0124
 301       2.224e-01      -6.178e-01      -3.669e-09           0.000           0.000           1.000       7.587e-06         -0.0184
 302       2.050e-01      -6.178e-01       2.146e-08          -0.000          -0.000           1.000       9.997e-06         -0.0251
 303       1.827e-01      -6.178e-01       3.582e-08           0.000           0.000           1.000       1.183e-05         -0.0329
 304       1.569e-01      -6.178e-01       3.390e-07           0.000           0.000           1.000       1.297e-05         -0.0424
 305       1.291e-01      -6.178e-01       9.770e-07           0.000          -0.000           1.000       1.336e-05         -0.0549
 306       1.008e-01      -6.178e-01      -1.315e-08          -0.000          -0.000           1.000       1.297e-05         -0.0741
 307       7.378e-02      -6.178e-01      -1.711e-06           0.000           0.000           1.000       1.183e-05         -0.1019
 308       4.955e-02      -6.178e-01       2.205e-06          -0.000          -0.000           1.000       9.997e-06         -0.1556
 309       2.953e-02      -6.178e-01      -2.629e-07          -0.000          -0.000           1.000       7.587e-06         -0.2496
 310       1.488e-02      -6.178e-01      -8.001e-07           0.000           0.000           1.000       4.736e-06         -0.4398
 311       6.456e-03      -6.178e-01      -4.763e-07           0.000           0.000           1.000       1.610e-06         -1.0540
Strip 25
 312       2.391e-01      -6.173e-01       2.960e-09           0.000          -0.000           1.000       1.701e-06         -0.0072
 313       2.340e-01      -6.173e-01       5.328e-09          -0.000          -0.000           1.000       5.005e-06         -0.0126
 314       2.224e-01      -6.173e-01      -3.673e-09           0.000           0.000           1.000       8.019e-06         -0.0187
 315       2.049e-01      -6.173e-01       2.148e-08          -0.000          -0.000           1.000       1.057e-05         -0.0254
 316       1.826e-01      -6.173e-01       3.586e-08           0.000           0.000           1.000       1.250e-05         -0.0334
 317       1.568e-01      -6.173e-01       3.394e-07           0.000           0.000           1.000       1.371e-05         -0.0430
 318       1.289e-01      -6.173e-01       9.780e-07           0.000          -0.000           1.000       1.412e-05         -0.0557
 319       1.007e-01      -6.173e-01      -1.316e-08          -0.000          -0.000           1.000       1.371e-05         -0.0752
 320       7.361e-02      -6.173e-01      -1.713e-06           0.000           0.000           1.000       1.250e-05         -0.1034
 321       4.936e-02      -6.173e-01       2.207e-06          -0.000          -0.000           1.000       1.057e-05         -0.1575
 322       2.932e-02      -6.173e-01      -2.632e-07          -0.000          -0.000           1.000       8.019e-06         -0.2521
 323       1.465e-02      -6.173e-01      -8.009e-07           0.000           0.000           1.000       5.005e-06         -0.4435
 324       6.217e-03      -6.173e-01      -4.768e-07           0.000           0.000           1.000       1.701e-06         -1.0593
Strip 26
 325       2.391e-01      -6.168e-01       2.963e-09           0.000          -0.000           1.000       1.764e-06         -0.0072
 326       2.340e-01      -6.168e-01       5.334e-09          -0.000          -0.000           1.000       5.190e-06         -0.0127
 327       2.224e-01      -6.168e-01      -3.677e-09           0.000           0.000           1.000       8.314e-06         -0.0189
 328       2.049e-01      -6.168e-01       2.151e-08          -0.000          -0.000           1.000       1.096e-05         -0.0258
 329       1.826e-01      -6.168e-01       3.590e-08           0.000           0.000           1.000       1.296e-05         -0.0338
 330       1.567e-01      -6.168e-01       3.397e-07           0.000           0.000           1.000       1.421e-05         -0.0436
 331       1.288e-01      -6.168e-01       9.790e-07           0.000          -0.000           1.000       1.464e-05         -0.0565
 332       1.005e-01      -6.168e-01      -1.317e-08          -0.000          -0.000           1.000       1.421e-05         -0.0763
 333       7.343e-02      -6.168e-01      -1.715e-06           0.000           0.000           1.000       1.296e-05         -0.1049
 334       4.915e-02      -6.168e-01       2.210e-06          -0.000          -0.000           1.000       1.096e-05         -0.1595
 335       2.909e-02      -6.168e-01      -2.634e-07          -0.000          -0.000           1.000       8.314e-06         -0.2546
 336       1.441e-02      -6.168e-01      -8.018e-07           0.000           0.000           1.000       5.190e-06         -0.4475
 337       5.968e-03      -6.168e-01      -4.773e-07           0.000           0.000           1.000       1.764e-06         -1.0641
Strip 27
 338       2.391e-01      -6.163e-01       2.967e-09           0.000          -0.000           1.000       1.797e-06         -0.0073
 339       2.340e-01      -6.163e-01       5.340e-09          -0.000          -0.000           1.000       5.286e-06         -0.0129
 340       2.224e-01      -6.163e-01      -3.681e-09           0.000           0.000           1.000       8.468e-06         -0.0191
 341       2.049e-01      -6.163e-01       2.153e-08          -0.000          -0.000           1.000       1.116e-05         -0.0261
 342       1.825e-01      -6.163e-01       3.594e-08           0.000           0.000           1.000       1.320e-05         -0.0343
 343       1.566e-01      -6.163e-01       3.401e-07           0.000           0.000           1.000       1.447e-05         -0.0442
 344       1.287e-01      -6.163e-01       9.801e-07           0.000          -0.000           1.000       1.491e-05         -0.0573
 345       1.004e-01      -6.163e-01      -1.319e-08          -0.000          -0.000           1.000       1.447e-05         -0.0773
 346       7.325e-02      -6.163e-01      -1.717e-06           0.000           0.000           1.000       1.320e-05         -0.1063
 347       4.894e-02      -6.163e-01       2.212e-06          -0.000          -0.000           1.000       1.116e-05         -0.1614
 348       2.886e-02      -6.163e-01      -2.637e-07          -0.000          -0.000           1.000       8.468e-06         -0.2570
 349       1.417e-02      -6.163e-01      -8.026e-07           0.000           0.000           1.000       5.286e-06         -0.4514
 350       5.712e-03      -6.163e-01      -4.778e-07           0.000           0.000           1.000       1.797e-06         -1.0693
Strip 28
 351       2.391e-01      -6.160e-01       2.968e-09           0.000           0.000           1.000       1.178e-07         -0.0074
 352       2.340e-01      -6.160e-01       5.343e-09          -0.000          -0.000           1.000       3.467e-07         -0.0129
 353       2.224e-01      -6.160e-01      -3.683e-09           0.000           0.000           1.000       5.553e-07         -0.0192
 354       2.049e-01      -6.160e-01       2.154e-08          -0.000          -0.000           1.000       7.317e-07         -0.0262
 355       1.825e-01      -6.160e-01       3.596e-08           0.000           0.000           1.000       8.656e-07         -0.0344
 356       1.566e-01      -6.160e-01       3.403e-07           0.000           0.000           1.000       9.492e-07         -0.0444
 357       1.286e-01      -6.160e-01       9.806e-07           0.000          -0.000           1.000       9.776e-07         -0.0576
 358       1.003e-01      -6.160e-01      -1.320e-08          -0.000          -0.000           1.000       9.492e-07         -0.0777
 359       7.315e-02      -6.160e-01      -1.717e-06           0.000           0.000           1.000       8.656e-07         -0.1069
 360       4.884e-02      -6.160e-01       2.213e-06          -0.000          -0.000           1.000       7.317e-07         -0.1620
 361       2.874e-02      -6.160e-01      -2.639e-07          -0.000          -0.000           1.000       5.553e-07         -0.2577
 362       1.404e-02      -6.160e-01      -8.031e-07           0.000           0.000           1.000       3.467e-07         -0.4524
 363       5.578e-03      -6.160e-01      -4.781e-07           0.000           0.000           1.000       1.178e-07         -1.0725
Strip 29
 364       2.391e-01      -6.159e-01       2.969e-09           0.000          -0.000           1.000       3.515e-07         -0.0074
 365       2.340e-01      -6.159e-01       5.343e-09          -0.000          -0.000           1.000       1.034e-06         -0.0130
 366       2.224e-01      -6.159e-01      -3.683e-09           0.000           0.000           1.000       1.657e-06         -0.0193
 367       2.048e-01      -6.159e-01       2.154e-08          -0.000          -0.000           1.000       2.183e-06         -0.0263
 368       1.825e-01      -6.159e-01       3.596e-08           0.000           0.000           1.000       2.582e-06         -0.0346
 369       1.566e-01      -6.159e-01       3.403e-07           0.000           0.000           1.000       2.832e-06         -0.0446
 370       1.286e-01      -6.159e-01       9.807e-07           0.000          -0.000           1.000       2.916e-06         -0.0578
 371       1.003e-01      -6.159e-01      -1.320e-08          -0.000          -0.000           1.000       2.832e-06         -0.0780
 372       7.314e-02      -6.159e-01      -1.718e-06           0.000           0.000           1.000       2.582e-06         -0.1073
 373       4.882e-02      -6.159e-01       2.214e-06          -0.000          -0.000           1.000       2.183e-06         -0.1626
 374       2.873e-02      -6.159e-01      -2.639e-07          -0.000          -0.000           1.000       1.657e-06         -0.2584
 375       1.402e-02      -6.159e-01      -8.032e-07           0.000           0.000           1.000       1.034e-06         -0.4533
 376       5.561e-03      -6.159e-01      -4.781e-07           0.000           0.000           1.000       3.515e-07         -1.0757
Strip 30
 377       2.391e-01      -6.158e-01       2.969e-09           0.000          -0.000           1.000       5.793e-07         -0.0074
 378       2.340e-01      -6.158e-01       5.344e-09          -0.000          -0.000           1.000       1.704e-06         -0.0130
 379       2.224e-01      -6.158e-01      -3.684e-09           0.000           0.000           1.000       2.730e-06         -0.0194
 380       2.048e-01      -6.158e-01       2.155e-08          -0.000          -0.000           1.000       3.597e-06         -0.0265
 381       1.825e-01      -6.158e-01       3.597e-08           0.000           0.000           1.000       4.255e-06         -0.0347
 382       1.566e-01      -6.158e-01       3.404e-07           0.000           0.000           1.000       4.666e-06         -0.0448
 383       1.286e-01      -6.158e-01       9.808e-07           0.000          -0.000           1.000       4.806e-06         -0.0581
 384       1.002e-01      -6.158e-01      -1.320e-08          -0.000          -0.000           1.000       4.666e-06         -0.0785
 385       7.312e-02      -6.158e-01      -1.718e-06           0.000           0.000           1.000       4.255e-06         -0.1079
 386       4.879e-02      -6.158e-01       2.214e-06          -0.000          -0.000           1.000       3.597e-06         -0.1633
 387       2.870e-02      -6.158e-01      -2.639e-07          -0.000          -0.000           1.000       2.730e-06         -0.2593
 388       1.399e-02      -6.158e-01      -8.033e-07           0.000           0.000           1.000       1.704e-06         -0.4543
 389       5.528e-03      -6.158e-01      -4.782e-07           0.000           0.000           1.000       5.793e-07         -1.0803
Strip 31
 390       2.391e-01      -6.156e-01       2.970e-09           0.000          -0.000           1.000       7.972e-07         -0.0074
 391       2.340e-01      -6.156e-01       5.345e-09          -0.000          -0.000           1.000       2.345e-06         -0.0131
 392       2.224e-01      -6.156e-01      -3.685e-09           0.000           0.000           1.000       3.757e-06         -0.0195
 393       2.048e-01      -6.156e-01       2.155e-08          -0.000          -0.000           1.000       4.951e-06         -0.0266
 394       1.825e-01      -6.156e-01       3.597e-08           0.000           0.000           1.000       5.856e-06         -0.0349
 395       1.565e-01      -6.156e-01       3.405e-07           0.000           0.000           1.000       6.422e-06         -0.0451
 396       1.286e-01      -6.156e-01       9.810e-07           0.000          -0.000           1.000       6.614e-06         -0.0585
 397       1.002e-01      -6.156e-01      -1.320e-08          -0.000          -0.000           1.000       6.422e-06         -0.0790
 398       7.308e-02      -6.156e-01      -1.718e-06           0.000           0.000           1.000       5.856e-06         -0.1086
 399       4.875e-02      -6.156e-01       2.214e-06          -0.000          -0.000           1.000       4.951e-06         -0.1642
 400       2.865e-02      -6.156e-01      -2.640e-07          -0.000          -0.000           1.000       3.757e-06         -0.2604
 401       1.394e-02      -6.156e-01      -8.034e-07           0.000           0.000           1.000       2.345e-06         -0.4553
 402       5.479e-03      -6.156e-01      -4.783e-07           0.000           0.000           1.000       7.972e-07         -1.0868
Strip 32
 403       2.391e-01      -6.153e-01       2.970e-09           0.000          -0.000           1.000       1.002e-06         -0.0075
 404       2.340e-01      -6.153e-01       5.346e-09          -0.000          -0.000           1.000       2.947e-06         -0.0132
 405       2.224e-01      -6.153e-01      -3.686e-09           0.000           0.000           1.000       4.721e-06         -0.0196
 406       2.048e-01      -6.153e-01       2.156e-08          -0.000          -0.000           1.000       6.220e-06         -0.0268
 407       1.825e-01      -6.153e-01       3.598e-08           0.000           0.000           1.000       7.358e-06         -0.0352
 408       1.565e-01      -6.153e-01       3.405e-07           0.000           0.000           1.000       8.069e-06         -0.0455
 409       1.286e-01      -6.153e-01       9.813e-07           0.000          -0.000           1.000       8.310e-06         -0.0590
 410       1.002e-01      -6.153e-01      -1.321e-08          -0.000          -0.000           1.000       8.069e-06         -0.0796
 411       7.304e-02      -6.153e-01      -1.719e-06           0.000           0.000           1.000       7.358e-06         -0.1094
 412       4.870e-02      -6.153e-01       2.215e-06          -0.000          -0.000           1.000       6.220e-06         -0.1653
 413       2.859e-02      -6.153e-01      -2.641e-07          -0.000          -0.000           1.000       4.721e-06         -0.2617
 414       1.388e-02      -6.153e-01      -8.037e-07           0.000           0.000           1.000       2.947e-06         -0.4565
 415       5.414e-03      -6.153e-01      -4.784e-07           0.000           0.000           1.000       1.002e-06         -1.0951
Strip 33
 416       2.391e-01      -6.150e-01       2.971e-09           0.000           0.000           1.000       1.189e-06         -0.0075
 417       2.340e-01      -6.150e-01       5.348e-09          -0.000          -0.000           1.000       3.498e-06         -0.0133
 418       2.224e-01      -6.150e-01      -3.687e-09           0.000           0.000           1.000       5.604e-06         -0.0198
 419       2.048e-01      -6.150e-01       2.156e-08          -0.000          -0.000           1.000       7.385e-06         -0.0270
 420       1.824e-01      -6.150e-01       3.600e-08           0.000           0.000           1.000       8.736e-06         -0.0355
 421       1.565e-01      -6.150e-01       3.407e-07           0.000           0.000           1.000       9.579e-06         -0.0459
 422       1.285e-01      -6.150e-01       9.816e-07           0.000          -0.000           1.000       9.866e-06         -0.0595
 423       1.001e-01      -6.150e-01      -1.321e-08          -0.000          -0.000           1.000       9.579e-06         -0.0804
 424       7.298e-02      -6.150e-01      -1.719e-06           0.000           0.000           1.000       8.736e-06         -0.1104
 425       4.864e-02      -6.150e-01       2.216e-06          -0.000          -0.000           1.000       7.385e-06         -0.1665
 426       2.852e-02      -6.150e-01      -2.642e-07          -0.000          -0.000           1.000       5.604e-06         -0.2631
 427       1.380e-02      -6.150e-01      -8.039e-07           0.000           0.000           1.000       3.498e-06         -0.4578
 428       5.335e-03      -6.150e-01      -4.786e-07           0.000           0.000           1.000       1.189e-06         -1.1049
Strip 34
 429       2.391e-01      -6.146e-01       2.973e-09           0.000          -0.000           1.000       1.357e-06         -0.0076
 430       2.340e-01      -6.146e-01       5.350e-09          -0.000          -0.000           1.000       3.991e-06         -0.0134
 431       2.223e-01      -6.146e-01      -3.688e-09           0.000           0.000           1.000       6.393e-06         -0.0200
 432       2.048e-01      -6.146e-01       2.157e-08          -0.000          -0.000           1.000       8.424e-06         -0.0273
 433       1.824e-01      -6.146e-01       3.601e-08           0.000           0.000           1.000       9.965e-06         -0.0359
 434       1.565e-01      -6.146e-01       3.408e-07           0.000           0.000           1.000       1.093e-05         -0.0463
 435       1.285e-01      -6.146e-01       9.820e-07           0.000          -0.000           1.000       1.125e-05         -0.0602
 436       1.001e-01      -6.146e-01      -1.322e-08          -0.000          -0.000           1.000       1.093e-05         -0.0812
 437       7.291e-02      -6.146e-01      -1.720e-06           0.000           0.000           1.000       9.965e-06         -0.1115
 438       4.856e-02      -6.146e-01       2.217e-06          -0.000          -0.000           1.000       8.424e-06         -0.1679
 439       2.844e-02      -6.146e-01      -2.643e-07          -0.000          -0.000           1.000       6.393e-06         -0.2647
 440       1.371e-02      -6.146e-01      -8.043e-07           0.000           0.000           1.000       3.991e-06         -0.4595
 441       5.244e-03      -6.146e-01      -4.788e-07           0.000           0.000           1.000       1.357e-06         -1.1158
Strip 35
 442       2.391e-01      -6.142e-01       2.974e-09           0.000          -0.000           1.000       1.501e-06         -0.0077
 443       2.340e-01      -6.142e-01       5.353e-09          -0.000          -0.000           1.000       4.415e-06         -0.0135
 444       2.223e-01      -6.142e-01      -3.690e-09           0.000           0.000           1.000       7.073e-06         -0.0202
 445       2.048e-01      -6.142e-01       2.158e-08          -0.000          -0.000           1.000       9.320e-06         -0.0276
 446       1.824e-01      -6.142e-01       3.603e-08           0.000           0.000           1.000       1.103e-05         -0.0363
 447       1.564e-01      -6.142e-01       3.409e-07           0.000           0.000           1.000       1.209e-05         -0.0469
 448       1.284e-01      -6.142e-01       9.825e-07           0.000          -0.000           1.000       1.245e-05         -0.0608
 449       1.000e-01      -6.142e-01      -1.322e-08          -0.000          -0.000           1.000       1.209e-05         -0.0821
 450       7.284e-02      -6.142e-01      -1.721e-06           0.000           0.000           1.000       1.103e-05         -0.1127
 451       4.848e-02      -6.142e-01       2.218e-06          -0.000          -0.000           1.000       9.320e-06         -0.1695
 452       2.835e-02      -6.142e-01      -2.644e-07          -0.000          -0.000           1.000       7.073e-06         -0.2666
 453       1.362e-02      -6.142e-01      -8.046e-07           0.000           0.000           1.000       4.415e-06         -0.4616
 454       5.142e-03      -6.142e-01      -4.790e-07           0.000           0.000           1.000       1.501e-06         -1.1272
Strip 36
 455       2.391e-01      -6.138e-01       2.975e-09           0.000          -0.000           1.000       1.620e-06         -0.0077
 456       2.340e-01      -6.138e-01       5.355e-09          -0.000          -0.000           1.000       4.765e-06         -0.0137
 457       2.223e-01      -6.138e-01      -3.692e-09           0.000           0.000           1.000       7.633e-06         -0.0204
 458       2.048e-01      -6.138e-01       2.159e-08          -0.000          -0.000           1.000       1.006e-05         -0.0279
 459       1.824e-01      -6.138e-01       3.604e-08           0.000           0.000           1.000       1.190e-05         -0.0367
 460       1.564e-01      -6.138e-01       3.411e-07           0.000           0.000           1.000       1.305e-05         -0.0474
 461       1.284e-01      -6.138e-01       9.829e-07           0.000          -0.000           1.000       1.344e-05         -0.0616
 462       9.995e-02      -6.138e-01      -1.323e-08          -0.000          -0.000           1.000       1.305e-05         -0.0831
 463       7.276e-02      -6.138e-01      -1.722e-06           0.000           0.000           1.000       1.190e-05         -0.1141
 464       4.839e-02      -6.138e-01       2.219e-06          -0.000          -0.000           1.000       1.006e-05         -0.1711
 465       2.825e-02      -6.138e-01      -2.645e-07          -0.000          -0.000           1.000       7.633e-06         -0.2685
 466       1.351e-02      -6.138e-01      -8.050e-07           0.000           0.000           1.000       4.765e-06         -0.4640
 467       5.030e-03      -6.138e-01      -4.792e-07           0.000           0.000           1.000       1.620e-06         -1.1388
Strip 37
 468       2.391e-01      -6.133e-01       2.977e-09           0.000          -0.000           1.000       1.711e-06         -0.0078
 469       2.340e-01      -6.133e-01       5.358e-09          -0.000          -0.000           1.000       5.033e-06         -0.0138
 470       2.223e-01      -6.133e-01      -3.694e-09           0.000           0.000           1.000       8.063e-06         -0.0206
 471       2.048e-01      -6.133e-01       2.160e-08          -0.000          -0.000           1.000       1.062e-05         -0.0282
 472       1.823e-01      -6.133e-01       3.606e-08           0.000           0.000           1.000       1.257e-05         -0.0371
 473       1.563e-01      -6.133e-01       3.413e-07           0.000           0.000           1.000       1.378e-05         -0.0480
 474       1.283e-01      -6.133e-01       9.834e-07           0.000          -0.000           1.000       1.419e-05         -0.0624
 475       9.988e-02      -6.133e-01      -1.323e-08          -0.000          -0.000           1.000       1.378e-05         -0.0842
 476       7.268e-02      -6.133e-01      -1.722e-06           0.000           0.000           1.000       1.257e-05         -0.1155
 477       4.829e-02      -6.133e-01       2.220e-06          -0.000          -0.000           1.000       1.062e-05         -0.1729
 478       2.814e-02      -6.133e-01      -2.646e-07          -0.000          -0.000           1.000       8.063e-06         -0.2706
 479       1.339e-02      -6.133e-01      -8.054e-07           0.000           0.000           1.000       5.033e-06         -0.4670
 480       4.911e-03      -6.133e-01      -4.795e-07           0.000           0.000           1.000       1.711e-06         -1.1500
Strip 38
 481       2.391e-01      -6.128e-01       2.978e-09           0.000          -0.000           1.000       1.773e-06         -0.0079
 482       2.340e-01      -6.128e-01       5.361e-09          -0.000          -0.000           1.000       5.216e-06         -0.0140
[...]
1281       1.029e-01       6.231e-01      -1.295e-08          -0.000           0.000           1.000       1.731e-05         -0.0616
1282       7.622e-02       6.231e-01      -1.686e-06           0.000          -0.000           1.000       1.578e-05         -0.0844
1283       5.236e-02       6.231e-01       2.173e-06          -0.000           0.000           1.000       1.334e-05         -0.1319
1284       3.263e-02       6.231e-01      -2.590e-07          -0.000           0.000           1.000       1.013e-05         -0.2180
1285       1.820e-02       6.231e-01      -7.883e-07           0.000          -0.000           1.000       6.321e-06         -0.3968
1286       9.895e-03       6.231e-01      -4.693e-07           0.000          -0.000           1.000       2.149e-06         -1.0090
Strip 100
1287       2.392e-01       6.237e-01       2.909e-09           0.000          -0.000           1.000       1.348e-06         -0.0061
1288       2.341e-01       6.237e-01       5.236e-09          -0.000           0.000           1.000       3.967e-06         -0.0105
1289       2.227e-01       6.237e-01      -3.609e-09           0.000          -0.000           1.000       6.355e-06         -0.0153
1290       2.056e-01       6.237e-01       2.111e-08          -0.000           0.000           1.000       8.373e-06         -0.0208
1291       1.836e-01       6.237e-01       3.524e-08           0.000          -0.000           1.000       9.905e-06         -0.0271
1292       1.583e-01       6.237e-01       3.335e-07           0.000          -0.000           1.000       1.086e-05         -0.0347
1293       1.309e-01       6.237e-01       9.610e-07           0.000           0.000           1.000       1.119e-05         -0.0447
1294       1.031e-01       6.237e-01      -1.293e-08          -0.000           0.000           1.000       1.086e-05         -0.0600
1295       7.650e-02       6.237e-01      -1.683e-06           0.000          -0.000           1.000       9.905e-06         -0.0822
1296       5.267e-02       6.237e-01       2.169e-06          -0.000           0.000           1.000       8.373e-06         -0.1288
1297       3.298e-02       6.237e-01      -2.586e-07          -0.000           0.000           1.000       6.355e-06         -0.2140
1298       1.857e-02       6.237e-01      -7.870e-07           0.000          -0.000           1.000       3.967e-06         -0.3901
1299       1.028e-02       6.237e-01      -4.685e-07           0.000          -0.000           1.000       1.348e-06         -1.0043
Strip 101
1300       2.392e-01       6.239e-01       2.906e-09           0.000           0.000           1.000       4.595e-07         -0.0060
1301       2.341e-01       6.239e-01       5.231e-09          -0.000           0.000           1.000       1.352e-06         -0.0103
1302       2.227e-01       6.239e-01      -3.606e-09           0.000          -0.000           1.000       2.166e-06         -0.0151
1303       2.056e-01       6.239e-01       2.109e-08          -0.000           0.000           1.000       2.854e-06         -0.0204
1304       1.837e-01       6.239e-01       3.521e-08           0.000          -0.000           1.000       3.376e-06         -0.0266
1305       1.583e-01       6.239e-01       3.332e-07           0.000          -0.000           1.000       3.702e-06         -0.0340
1306       1.310e-01       6.239e-01       9.601e-07           0.000           0.000           1.000       3.812e-06         -0.0438
1307       1.032e-01       6.239e-01      -1.292e-08          -0.000           0.000           1.000       3.702e-06         -0.0587
1308       7.664e-02       6.239e-01      -1.682e-06           0.000          -0.000           1.000       3.376e-06         -0.0803
1309       5.283e-02       6.239e-01       2.167e-06          -0.000           0.000           1.000       2.854e-06         -0.1264
1310       3.316e-02       6.239e-01      -2.584e-07          -0.000           0.000           1.000       2.166e-06         -0.2107
1311       1.876e-02       6.239e-01      -7.863e-07           0.000          -0.000           1.000       1.352e-06         -0.3848
1312       1.048e-02       6.239e-01      -4.681e-07           0.000          -0.000           1.000       4.595e-07         -0.9989
Strip 102
1313       2.392e-01       6.250e-01       2.896e-09           0.000           0.000           1.000       6.720e-06         -0.0059
1314       2.342e-01       6.250e-01       5.213e-09          -0.000           0.000           1.000       1.977e-05         -0.0101
1315       2.228e-01       6.250e-01      -3.594e-09           0.000          -0.000           1.000       3.167e-05         -0.0147
1316       2.057e-01       6.250e-01       2.102e-08          -0.000           0.000           1.000       4.173e-05         -0.0199
1317       1.839e-01       6.250e-01       3.509e-08           0.000          -0.000           1.000       4.936e-05         -0.0260
1318       1.586e-01       6.250e-01       3.320e-07           0.000          -0.000           1.000       5.413e-05         -0.0332
1319       1.313e-01       6.250e-01       9.568e-07           0.000           0.000           1.000       5.575e-05         -0.0427
1320       1.037e-01       6.250e-01      -1.288e-08          -0.000           0.000           1.000       5.413e-05         -0.0573
1321       7.720e-02       6.250e-01      -1.676e-06           0.000          -0.000           1.000       4.936e-05         -0.0782
1322       5.348e-02       6.250e-01       2.160e-06          -0.000           0.000           1.000       4.173e-05         -0.1235
1323       3.387e-02       6.250e-01      -2.575e-07          -0.000           0.000           1.000       3.167e-05         -0.2072
1324       1.952e-02       6.250e-01      -7.836e-07           0.000          -0.000           1.000       1.977e-05         -0.3789
1325       1.127e-02       6.250e-01      -4.665e-07           0.000          -0.000           1.000       6.720e-06         -0.9940
Strip 103
1326       2.392e-01       6.267e-01       2.880e-09           0.000           0.000           1.000       4.892e-06         -0.0056
1327       2.342e-01       6.267e-01       5.184e-09          -0.000           0.000           1.000       1.439e-05         -0.0095
1328       2.229e-01       6.267e-01      -3.574e-09           0.000          -0.000           1.000       2.305e-05         -0.0139
1329       2.059e-01       6.267e-01       2.090e-08          -0.000           0.000           1.000       3.038e-05         -0.0187
1330       1.842e-01       6.267e-01       3.489e-08           0.000          -0.000           1.000       3.593e-05         -0.0243
1331       1.591e-01       6.267e-01       3.302e-07           0.000          -0.000           1.000       3.940e-05         -0.0311
1332       1.320e-01       6.267e-01       9.514e-07           0.000           0.000           1.000       4.058e-05         -0.0399
1333       1.044e-01       6.267e-01      -1.280e-08          -0.000           0.000           1.000       3.940e-05         -0.0533
1334       7.812e-02       6.267e-01      -1.666e-06           0.000          -0.000           1.000       3.593e-05         -0.0726
1335       5.452e-02       6.267e-01       2.148e-06          -0.000           0.000           1.000       3.038e-05         -0.1158
1336       3.503e-02       6.267e-01      -2.560e-07          -0.000           0.000           1.000       2.305e-05         -0.1984
1337       2.076e-02       6.267e-01      -7.792e-07           0.000          -0.000           1.000       1.439e-05         -0.3663
1338       1.255e-02       6.267e-01      -4.639e-07           0.000          -0.000           1.000       4.892e-06         -0.9538
Strip 104
1339       2.392e-01       6.277e-01       2.871e-09           0.000           0.000           1.000       1.785e-06         -0.0053
1340       2.342e-01       6.277e-01       5.167e-09          -0.000           0.000           1.000       5.250e-06         -0.0091
1341       2.229e-01       6.277e-01      -3.562e-09           0.000          -0.000           1.000       8.410e-06         -0.0132
1342       2.060e-01       6.277e-01       2.083e-08          -0.000           0.000           1.000       1.108e-05         -0.0177
1343       1.844e-01       6.277e-01       3.477e-08           0.000          -0.000           1.000       1.311e-05         -0.0230
1344       1.593e-01       6.277e-01       3.291e-07           0.000          -0.000           1.000       1.438e-05         -0.0294
1345       1.323e-01       6.277e-01       9.483e-07           0.000           0.000           1.000       1.481e-05         -0.0376
1346       1.049e-01       6.277e-01      -1.276e-08          -0.000           0.000           1.000       1.438e-05         -0.0502
1347       7.865e-02       6.277e-01      -1.661e-06           0.000          -0.000           1.000       1.311e-05         -0.0682
1348       5.513e-02       6.277e-01       2.141e-06          -0.000           0.000           1.000       1.108e-05         -0.1095
1349       3.570e-02       6.277e-01      -2.552e-07          -0.000           0.000           1.000       8.410e-06         -0.1910
1350       2.148e-02       6.277e-01      -7.767e-07           0.000          -0.000           1.000       5.250e-06         -0.3607
1351       1.330e-02       6.277e-01      -4.624e-07           0.000          -0.000           1.000       1.785e-06         -0.9073
Strip 105
1352       2.392e-01       6.294e-01       2.846e-09           0.000           0.000           1.000       9.338e-06         -0.0051
1353       2.343e-01       6.294e-01       5.122e-09          -0.000           0.000           1.000       2.747e-05         -0.0086
1354       2.231e-01       6.294e-01      -3.531e-09           0.000          -0.000           1.000       4.401e-05         -0.0124
1355       2.063e-01       6.294e-01       2.065e-08          -0.000           0.000           1.000       5.799e-05         -0.0166
1356       1.849e-01       6.294e-01       3.448e-08           0.000          -0.000           1.000       6.860e-05         -0.0216
1357       1.600e-01       6.294e-01       3.263e-07           0.000          -0.000           1.000       7.522e-05         -0.0275
1358       1.332e-01       6.294e-01       9.402e-07           0.000           0.000           1.000       7.747e-05         -0.0352
1359       1.060e-01       6.294e-01      -1.265e-08          -0.000           0.000           1.000       7.522e-05         -0.0468
1360       8.003e-02       6.294e-01      -1.647e-06           0.000          -0.000           1.000       6.860e-05         -0.0632
1361       5.672e-02       6.294e-01       2.122e-06          -0.000           0.000           1.000       5.799e-05         -0.1024
1362       3.745e-02       6.294e-01      -2.530e-07          -0.000           0.000           1.000       4.401e-05         -0.1821
1363       2.335e-02       6.294e-01      -7.700e-07           0.000          -0.000           1.000       2.747e-05         -0.3496
1364       1.524e-02       6.294e-01      -4.584e-07           0.000          -0.000           1.000       9.338e-06         -0.8803
Strip 106
1365       2.392e-01       6.314e-01       2.815e-09           0.000           0.000           1.000       3.825e-06         -0.0047
1366       2.343e-01       6.314e-01       5.066e-09          -0.000           0.000           1.000       1.125e-05         -0.0078
1367       2.233e-01       6.314e-01      -3.492e-09           0.000          -0.000           1.000       1.803e-05         -0.0112
1368       2.067e-01       6.314e-01       2.043e-08          -0.000           0.000           1.000       2.375e-05         -0.0150
1369       1.855e-01       6.314e-01       3.410e-08           0.000          -0.000           1.000       2.810e-05         -0.0194
1370       1.609e-01       6.314e-01       3.227e-07           0.000          -0.000           1.000       3.081e-05         -0.0247
1371       1.344e-01       6.314e-01       9.299e-07           0.000           0.000           1.000       3.174e-05         -0.0314
1372       1.075e-01       6.314e-01      -1.251e-08          -0.000           0.000           1.000       3.081e-05         -0.0417
1373       8.179e-02       6.314e-01      -1.629e-06           0.000          -0.000           1.000       2.810e-05         -0.0558
1374       5.873e-02       6.314e-01       2.099e-06          -0.000           0.000           1.000       2.375e-05         -0.0906
1375       3.968e-02       6.314e-01      -2.502e-07          -0.000           0.000           1.000       1.803e-05         -0.1676
1376       2.574e-02       6.314e-01      -7.615e-07           0.000          -0.000           1.000       1.125e-05         -0.3265
1377       1.772e-02       6.314e-01      -4.534e-07           0.000          -0.000           1.000       3.825e-06         -0.8451
Strip 107
1378       2.392e-01       6.334e-01       2.775e-09           0.000           0.000           1.000       9.103e-06         -0.0042
1379       2.344e-01       6.334e-01       4.994e-09          -0.000           0.000           1.000       2.678e-05         -0.0070
1380       2.235e-01       6.334e-01      -3.443e-09           0.000          -0.000           1.000       4.290e-05         -0.0099
1381       2.071e-01       6.334e-01       2.014e-08          -0.000           0.000           1.000       5.653e-05         -0.0133
1382       1.862e-01       6.334e-01       3.361e-08           0.000          -0.000           1.000       6.687e-05         -0.0171
1383       1.620e-01       6.334e-01       3.181e-07           0.000          -0.000           1.000       7.333e-05         -0.0217
1384       1.359e-01       6.334e-01       9.166e-07           0.000           0.000           1.000       7.552e-05         -0.0275
1385       1.094e-01       6.334e-01      -1.233e-08          -0.000           0.000           1.000       7.333e-05         -0.0363
1386       8.405e-02       6.334e-01      -1.605e-06           0.000          -0.000           1.000       6.687e-05         -0.0479
1387       6.132e-02       6.334e-01       2.069e-06          -0.000           0.000           1.000       5.653e-05         -0.0776
1388       4.254e-02       6.334e-01      -2.466e-07          -0.000           0.000           1.000       4.290e-05         -0.1509
1389       2.879e-02       6.334e-01      -7.507e-07           0.000          -0.000           1.000       2.678e-05         -0.3015
1390       2.089e-02       6.334e-01      -4.469e-07           0.000          -0.000           1.000       9.103e-06         -0.8109
Strip 108
1391       2.392e-01       6.354e-01       2.731e-09           0.000           0.000           1.000       3.711e-06         -0.0037
1392       2.345e-01       6.354e-01       4.915e-09          -0.000           0.000           1.000       1.092e-05         -0.0060
1393       2.238e-01       6.354e-01      -3.388e-09           0.000          -0.000           1.000       1.749e-05         -0.0084
1394       2.077e-01       6.354e-01       1.982e-08          -0.000           0.000           1.000       2.305e-05         -0.0112
1395       1.871e-01       6.354e-01       3.308e-08           0.000          -0.000           1.000       2.726e-05         -0.0144
1396       1.633e-01       6.354e-01       3.131e-07           0.000          -0.000           1.000       2.989e-05         -0.0182
1397       1.376e-01       6.354e-01       9.021e-07           0.000           0.000           1.000       3.079e-05         -0.0228
1398       1.115e-01       6.354e-01      -1.214e-08          -0.000           0.000           1.000       2.989e-05         -0.0299
1399       8.651e-02       6.354e-01      -1.580e-06           0.000          -0.000           1.000       2.726e-05         -0.0389
1400       6.414e-02       6.354e-01       2.036e-06          -0.000           0.000           1.000       2.305e-05         -0.0623
1401       4.566e-02       6.354e-01      -2.427e-07          -0.000           0.000           1.000       1.749e-05         -0.1342
1402       3.213e-02       6.354e-01      -7.388e-07           0.000          -0.000           1.000       1.092e-05         -0.2635
1403       2.435e-02       6.354e-01      -4.398e-07           0.000          -0.000           1.000       3.711e-06         -0.7344
Strip 109
1404       2.392e-01       6.374e-01       2.643e-09           0.000           0.000           1.000       8.671e-06         -0.0031
1405       2.347e-01       6.374e-01       4.756e-09          -0.000           0.000           1.000       2.551e-05         -0.0048
1406       2.243e-01       6.374e-01      -3.279e-09           0.000          -0.000           1.000       4.086e-05         -0.0067
1407       2.087e-01       6.374e-01       1.918e-08          -0.000           0.000           1.000       5.384e-05         -0.0089
1408       1.888e-01       6.374e-01       3.201e-08           0.000          -0.000           1.000       6.369e-05         -0.0115
1409       1.657e-01       6.374e-01       3.030e-07           0.000          -0.000           1.000       6.984e-05         -0.0144
1410       1.409e-01       6.374e-01       8.730e-07           0.000           0.000           1.000       7.193e-05         -0.0178
1411       1.156e-01       6.374e-01      -1.175e-08          -0.000           0.000           1.000       6.984e-05         -0.0229
1412       9.147e-02       6.374e-01      -1.529e-06           0.000          -0.001           1.000       6.369e-05         -0.0287
1413       6.982e-02       6.374e-01       1.971e-06          -0.000           0.001           1.000       5.384e-05         -0.0427
1414       5.193e-02       6.374e-01      -2.349e-07          -0.000           0.000           1.000       4.086e-05         -0.0982
1415       3.884e-02       6.374e-01      -7.150e-07           0.000          -0.000           1.000       2.551e-05         -0.2633
1416       3.131e-02       6.374e-01      -4.256e-07           0.000          -0.001           1.000       8.671e-06         -0.6360
Strip 110
1417       2.393e-01       6.394e-01       2.536e-09           0.000           0.000           1.000       3.447e-06         -0.0020
1418       2.349e-01       6.394e-01       4.565e-09          -0.000           0.000           1.000       1.014e-05         -0.0030
1419       2.249e-01       6.394e-01      -3.147e-09           0.000          -0.000           1.000       1.624e-05         -0.0041
1420       2.100e-01       6.394e-01       1.841e-08          -0.000           0.000           1.000       2.140e-05         -0.0055
1421       1.909e-01       6.394e-01       3.072e-08           0.000          -0.000           1.000       2.532e-05         -0.0070
1422       1.687e-01       6.394e-01       2.907e-07           0.000          -0.000           1.000       2.776e-05         -0.0087
1423       1.449e-01       6.394e-01       8.378e-07           0.000           0.000           1.000       2.860e-05         -0.0106
1424       1.206e-01       6.394e-01      -1.127e-08          -0.000           0.000           1.000       2.776e-05         -0.0134
1425       9.745e-02       6.394e-01      -1.467e-06           0.000          -0.001           1.000       2.532e-05         -0.0163
1426       7.667e-02       6.394e-01       1.891e-06          -0.000           0.001           1.000       2.140e-05         -0.0229
1427       5.951e-02       6.394e-01      -2.255e-07          -0.000           0.000           1.000       1.624e-05         -0.0419
1428       4.694e-02       6.394e-01      -6.862e-07           0.000          -0.000           1.000       1.014e-05         -0.1313
1429       3.972e-02       6.394e-01      -4.085e-07           0.000          -0.001           1.000       3.447e-06         -0.6412










