xflr5 v6.50

Plane Name
T1-44.0 m/s-VLM1
QInf  =   44.000000 m/s
Alpha =    3.500000
Beta  =    0.000°
Phi   =    0.000°
Ctrl  =    0.000
CL    =    0.261271
Cy    =    0.000000
Cd    =    0.010703     ICd   =    0.003695     PCd   =    0.007008
Cl   = -2.70503e-16
Cm   =  -0.0630771
ICn   =   -0.000000     PCn   =   -0.000000 
XCP   =    0.057827     YCP   =    0.000000     ZCP   =   -0.000000  
XNP   =    0.000000
Bending =    8.330109

Main Wing
  y-span        Chord      Ai         Cl        PCd          ICd        CmGeom    CmAirf@chord/4    XTrtop    XTrBot      XCP       BM
   -0.6394     0.2025    -1.366    0.031631    0.007378    0.000754   -0.010947    0.003022     0.6720    0.6858    0.1545    0.0000
   -0.6374     0.2110    -1.356    0.050578    0.007251    0.001197   -0.015568    0.004204     0.6655    0.6873    0.1669    0.0000
   -0.6354     0.2180    -1.347    0.061438    0.007167    0.001444   -0.017227    0.004482     0.6612    0.6877    0.1771    0.0001
   -0.6334     0.2215    -1.339    0.071465    0.007133    0.001670   -0.019139    0.004833     0.6581    0.6889    0.1824    0.0002
   -0.6314     0.2247    -1.331    0.079277    0.007098    0.001842   -0.020374    0.004971     0.6555    0.6897    0.1873    0.0005
   -0.6294     0.2272    -1.323    0.086553    0.007071    0.001999   -0.021549    0.005085     0.6533    0.6906    0.1913    0.0007
   -0.6277     0.2292    -1.317    0.091063    0.007048    0.002093   -0.022073    0.005114     0.6518    0.6910    0.1938    0.0011
   -0.6267     0.2300    -1.313    0.095260    0.007040    0.002184   -0.022934    0.005171     0.6507    0.6917    0.1957    0.0013
   -0.6250     0.2313    -1.307    0.100445    0.007025    0.002292   -0.023821    0.005215     0.6493    0.6925    0.1981    0.0018
   -0.6239     0.2321    -1.303    0.102241    0.007015    0.002322   -0.023993    0.005207     0.6487    0.6927    0.1991    0.0021
   -0.6237     0.2323    -1.302    0.103924    0.007013    0.002362   -0.024362    0.005209     0.6483    0.6930    0.1999    0.0022
   -0.6231     0.2326    -1.300    0.105931    0.007008    0.002405   -0.024749    0.005206     0.6477    0.6933    0.2009    0.0024
   -0.6224     0.2332    -1.298    0.108248    0.007002    0.002452   -0.025150    0.005194     0.6471    0.6937    0.2020    0.0026
   -0.6215     0.2339    -1.295    0.110781    0.006993    0.002503   -0.025550    0.005172     0.6464    0.6941    0.2033    0.0029
   -0.6205     0.2346    -1.291    0.113323    0.006984    0.002554   -0.025909    0.005141     0.6457    0.6944    0.2046    0.0033
   -0.6200     0.2350    -1.289    0.113661    0.006978    0.002503   -0.025884    0.005130     0.6455    0.6944    0.2050    0.0036
   -0.6199     0.2350    -1.289    0.114456    0.006978    0.002573   -0.026026    0.005127     0.6453    0.6945    0.2052    0.0036
   -0.6198     0.2351    -1.288    0.115150    0.006978    0.002589   -0.026178    0.005124     0.6451    0.6947    0.2055    0.0037
   -0.6196     0.2352    -1.288    0.115926    0.006977    0.002605   -0.026340    0.005120     0.6449    0.6948    0.2058    0.0038
   -0.6193     0.2353    -1.287    0.116807    0.006976    0.002623   -0.026515    0.005116     0.6447    0.6950    0.2062    0.0039
   -0.6190     0.2355    -1.286    0.117796    0.006975    0.002643   -0.026705    0.005111     0.6445    0.6952    0.2066    0.0040
   -0.6186     0.2357    -1.284    0.118888    0.006974    0.002665   -0.026909    0.005105     0.6442    0.6954    0.2071    0.0042
   -0.6182     0.2359    -1.283    0.120069    0.006972    0.002689   -0.027125    0.005098     0.6439    0.6956    0.2075    0.0044
   -0.6178     0.2361    -1.281    0.121324    0.006970    0.002713   -0.027350    0.005090     0.6436    0.6958    0.2080    0.0046
   -0.6173     0.2364    -1.280    0.122631    0.006968    0.002739   -0.027580    0.005081     0.6432    0.6960    0.2086    0.0049
   -0.6168     0.2366    -1.278    0.123963    0.006966    0.002765   -0.027808    0.005071     0.6429    0.6963    0.2091    0.0051
   -0.6163     0.2369    -1.276    0.125268    0.006964    0.002790   -0.028023    0.005062     0.6425    0.6965    0.2096    0.0054
   -0.6160     0.2370    -1.275    0.125635    0.006963    0.002762   -0.028074    0.005059     0.6424    0.6965    0.2098    0.0056
   -0.6159     0.2370    -1.275    0.126127    0.006963    0.002806   -0.028173    0.005059     0.6423    0.6966    0.2099    0.0056
   -0.6158     0.2371    -1.274    0.126661    0.006963    0.002817   -0.028293    0.005058     0.6422    0.6968    0.2101    0.0057
   -0.6156     0.2371    -1.274    0.127314    0.006963    0.002830   -0.028437    0.005059     0.6421    0.6969    0.2103    0.0058
   -0.6153     0.2372    -1.273    0.128101    0.006963    0.002846   -0.028607    0.005059     0.6419    0.6970    0.2105    0.0060
   -0.6150     0.2372    -1.272    0.129019    0.006963    0.002864   -0.028802    0.005060     0.6417    0.6972    0.2108    0.0062
   -0.6146     0.2373    -1.270    0.130060    0.006963    0.002884   -0.029022    0.005061     0.6414    0.6974    0.2111    0.0064
   -0.6142     0.2374    -1.269    0.131211    0.006963    0.002906   -0.029263    0.005062     0.6411    0.6977    0.2114    0.0066
   -0.6138     0.2376    -1.267    0.132455    0.006963    0.002930   -0.029523    0.005063     0.6409    0.6979    0.2118    0.0069
   -0.6133     0.2377    -1.266    0.133776    0.006963    0.002955   -0.029799    0.005062     0.6405    0.6982    0.2122    0.0073
   -0.6128     0.2378    -1.264    0.135152    0.006963    0.002981   -0.030085    0.005061     0.6402    0.6985    0.2126    0.0076
   -0.6123     0.2379    -1.262    0.136552    0.006963    0.003008   -0.030375    0.005058     0.6399    0.6988    0.2130    0.0080
   -0.6119     0.2380    -1.261    0.137482    0.006963    0.003025   -0.030573    0.005056     0.6397    0.6989    0.2132    0.0082
   -0.6117     0.2381    -1.260    0.138395    0.006963    0.003044   -0.030769    0.005053     0.6395    0.6991    0.2135    0.0084
   -0.6111     0.2382    -1.258    0.139833    0.006963    0.003071   -0.031069    0.005048     0.6391    0.6994    0.2139    0.0088
   -0.6104     0.2384    -1.256    0.141774    0.006963    0.003107   -0.031468    0.005039     0.6387    0.6998    0.2145    0.0093
   -0.6095     0.2386    -1.252    0.144136    0.006962    0.003151   -0.031951    0.005025     0.6381    0.7003    0.2151    0.0100
   -0.6085     0.2389    -1.249    0.146798    0.006963    0.003200   -0.032496    0.005006     0.6375    0.7008    0.2159    0.0109
   -0.6077     0.2391    -1.246    0.149209    0.006964    0.003246   -0.033006    0.004987     0.6369    0.7013    0.2166    0.0116
   -0.6067     0.2393    -1.243    0.151921    0.006965    0.003296   -0.033558    0.004964     0.6363    0.7019    0.2173    0.0125
   -0.6050     0.2397    -1.237    0.156423    0.006965    0.003377   -0.034450    0.004926     0.6353    0.7028    0.2185    0.0141
   -0.6037     0.2400    -1.232    0.160285    0.006967    0.003448   -0.035258    0.004919     0.6344    0.7036    0.2193    0.0155
   -0.6027     0.2400    -1.229    0.164244    0.006972    0.003523   -0.036236    0.004932     0.6336    0.7045    0.2200    0.0166
   -0.6010     0.2400    -1.222    0.171163    0.006979    0.003652   -0.037927    0.004971     0.6321    0.7061    0.2210    0.0185
   -0.5772     0.2400    -1.163    0.185705    0.006980    0.003769   -0.041479    0.005054     0.6281    0.7098    0.2228    0.0482
   -0.4893     0.2400    -0.986    0.238516    0.006986    0.004104   -0.055934    0.003802     0.6128    0.7231    0.2341    0.3696
   -0.3269     0.2400    -0.787    0.279475    0.007004    0.003837   -0.067898    0.002077     0.5984    0.7338    0.2426    2.3970
   -0.1148     0.2400    -0.678    0.297814    0.007025    0.003525   -0.073222    0.001339     0.5904    0.7385    0.2455    8.3301
    0.1148     0.2400    -0.678    0.297814    0.007025    0.003525   -0.073222    0.001339     0.5904    0.7385    0.2455    8.3301
    0.3269     0.2400    -0.787    0.279475    0.007004    0.003837   -0.067898    0.002077     0.5984    0.7338    0.2426    2.3970
    0.4893     0.2400    -0.986    0.238516    0.006986    0.004104   -0.055934    0.003802     0.6128    0.7231    0.2341    0.3696
    0.5772     0.2400    -1.163    0.185705    0.006980    0.003769   -0.041479    0.005054     0.6281    0.7098    0.2228    0.0482
    0.6010     0.2400    -1.222    0.171163    0.006979    0.003652   -0.037927    0.004971     0.6321    0.7061    0.2210    0.0185
    0.6027     0.2400    -1.229    0.164244    0.006972    0.003523   -0.036236    0.004932     0.6336    0.7045    0.2200    0.0166
    0.6037     0.2400    -1.232    0.160285    0.006967    0.003448   -0.035258    0.004919     0.6344    0.7036    0.2193    0.0155
    0.6050     0.2397    -1.237    0.156423    0.006965    0.003377   -0.034450    0.004926     0.6353    0.7028    0.2185    0.0141
    0.6067     0.2393    -1.243    0.151921    0.006965    0.003296   -0.033558    0.004964     0.6363    0.7019    0.2173    0.0125
    0.6077     0.2391    -1.246    0.149209    0.006964    0.003246   -0.033006    0.004987     0.6369    0.7013    0.2166    0.0116
    0.6085     0.2389    -1.249    0.146798    0.006963    0.003200   -0.032496    0.005006     0.6375    0.7008    0.2159    0.0109
    0.6095     0.2386    -1.252    0.144136    0.006962    0.003151   -0.031951    0.005025     0.6381    0.7003    0.2151    0.0100
    0.6104     0.2384    -1.256    0.141774    0.006963    0.003107   -0.031468    0.005039     0.6387    0.6998    0.2145    0.0093
    0.6111     0.2382    -1.258    0.139833    0.006963    0.003071   -0.031069    0.005048     0.6391    0.6994    0.2139    0.0088
    0.6117     0.2381    -1.260    0.138395    0.006963    0.003044   -0.030769    0.005053     0.6395    0.6991    0.2135    0.0084
    0.6119     0.2380    -1.261    0.137482    0.006963    0.003025   -0.030573    0.005056     0.6397    0.6989    0.2132    0.0082
    0.6123     0.2379    -1.262    0.136552    0.006963    0.003008   -0.030375    0.005058     0.6399    0.6988    0.2130    0.0080
    0.6128     0.2378    -1.264    0.135152    0.006963    0.002981   -0.030085    0.005061     0.6402    0.6985    0.2126    0.0076
    0.6133     0.2377    -1.266    0.133776    0.006963    0.002955   -0.029799    0.005062     0.6405    0.6982    0.2122    0.0073
    0.6138     0.2376    -1.267    0.132455    0.006963    0.002930   -0.029523    0.005063     0.6409    0.6979    0.2118    0.0069
    0.6142     0.2374    -1.269    0.131211    0.006963    0.002906   -0.029263    0.005062     0.6411    0.6977    0.2114    0.0066
    0.6146     0.2373    -1.270    0.130060    0.006963    0.002884   -0.029022    0.005061     0.6414    0.6974    0.2111    0.0064
    0.6150     0.2372    -1.272    0.129019    0.006963    0.002864   -0.028802    0.005060     0.6417    0.6972    0.2108    0.0062
    0.6153     0.2372    -1.273    0.128101    0.006963    0.002846   -0.028607    0.005059     0.6419    0.6970    0.2105    0.0060
    0.6156     0.2371    -1.274    0.127314    0.006963    0.002830   -0.028437    0.005059     0.6421    0.6969    0.2103    0.0058
    0.6158     0.2371    -1.274    0.126661    0.006963    0.002817   -0.028293    0.005058     0.6422    0.6968    0.2101    0.0057
    0.6159     0.2370    -1.275    0.126127    0.006963    0.002806   -0.028173    0.005059     0.6423    0.6966    0.2099    0.0056
    0.6160     0.2370    -1.275    0.125635    0.006963    0.002762   -0.028074    0.005059     0.6424    0.6965    0.2098    0.0056
    0.6163     0.2369    -1.276    0.125268    0.006964    0.002790   -0.028023    0.005062     0.6425    0.6965    0.2096    0.0054
    0.6168     0.2366    -1.278    0.123963    0.006966    0.002765   -0.027808    0.005071     0.6429    0.6963    0.2091    0.0051
    0.6173     0.2364    -1.280    0.122631    0.006968    0.002739   -0.027580    0.005081     0.6432    0.6960    0.2086    0.0049
    0.6178     0.2361    -1.281    0.121324    0.006970    0.002713   -0.027350    0.005090     0.6436    0.6958    0.2080    0.0046
    0.6182     0.2359    -1.283    0.120069    0.006972    0.002689   -0.027125    0.005098     0.6439    0.6956    0.2075    0.0044
    0.6186     0.2357    -1.284    0.118888    0.006974    0.002665   -0.026909    0.005105     0.6442    0.6954    0.2071    0.0042
    0.6190     0.2355    -1.286    0.117796    0.006975    0.002643   -0.026705    0.005111     0.6445    0.6952    0.2066    0.0040
    0.6193     0.2353    -1.287    0.116807    0.006976    0.002623   -0.026515    0.005116     0.6447    0.6950    0.2062    0.0039
    0.6196     0.2352    -1.288    0.115926    0.006977    0.002605   -0.026340    0.005120     0.6449    0.6948    0.2058    0.0038
    0.6198     0.2351    -1.288    0.115150    0.006978    0.002589   -0.026178    0.005124     0.6451    0.6947    0.2055    0.0037
    0.6199     0.2350    -1.289    0.114456    0.006978    0.002573   -0.026026    0.005127     0.6453    0.6945    0.2052    0.0036
    0.6200     0.2350    -1.289    0.113661    0.006978    0.002503   -0.025884    0.005130     0.6455    0.6944    0.2050    0.0036
    0.6205     0.2346    -1.291    0.113323    0.006984    0.002554   -0.025909    0.005141     0.6457    0.6944    0.2046    0.0033
    0.6215     0.2339    -1.295    0.110781    0.006993    0.002503   -0.025550    0.005172     0.6464    0.6941    0.2033    0.0029
    0.6224     0.2332    -1.298    0.108248    0.007002    0.002452   -0.025150    0.005194     0.6471    0.6937    0.2020    0.0026
    0.6231     0.2326    -1.300    0.105931    0.007008    0.002405   -0.024749    0.005206     0.6477    0.6933    0.2009    0.0024
    0.6237     0.2323    -1.302    0.103924    0.007013    0.002362   -0.024362    0.005209     0.6483    0.6930    0.1999    0.0022
    0.6239     0.2321    -1.303    0.102241    0.007015    0.002322   -0.023993    0.005207     0.6487    0.6927    0.1991    0.0021
    0.6250     0.2313    -1.307    0.100445    0.007025    0.002292   -0.023821    0.005215     0.6493    0.6925    0.1981    0.0018
    0.6267     0.2300    -1.313    0.095260    0.007040    0.002184   -0.022934    0.005171     0.6507    0.6917    0.1957    0.0013
    0.6277     0.2292    -1.317    0.091063    0.007048    0.002093   -0.022073    0.005114     0.6518    0.6910    0.1938    0.0011
    0.6294     0.2272    -1.323    0.086553    0.007071    0.001999   -0.021549    0.005085     0.6533    0.6906    0.1913    0.0007
    0.6314     0.2247    -1.331    0.079277    0.007098    0.001842   -0.020374    0.004971     0.6555    0.6897    0.1873    0.0005
    0.6334     0.2215    -1.339    0.071465    0.007133    0.001670   -0.019139    0.004833     0.6581    0.6889    0.1824    0.0002
    0.6354     0.2180    -1.347    0.061438    0.007167    0.001444   -0.017227    0.004482     0.6612    0.6877    0.1771    0.0001
    0.6374     0.2110    -1.356    0.050578    0.007251    0.001197   -0.015568    0.004204     0.6655    0.6873    0.1669    0.0000
    0.6394     0.2025    -1.366    0.031631    0.007378    0.000754   -0.010947    0.003022     0.6720    0.6858    0.1545    0.0000


Main Wing Cp Coefficients
 Panel     CtrlPt.x        CtrlPt.y        CtrlPt.z       Nx      Ny       Nz        Area       Cp
Main WingCp Coefficients
Strip 1
   0       2.393e-01      -6.394e-01       2.536e-09           0.000          -0.000           1.000       3.447e-06          0.0023
   1       2.349e-01      -6.394e-01       4.565e-09          -0.000          -0.000           1.000       1.014e-05          0.0035
   2       2.249e-01      -6.394e-01      -3.147e-09           0.000           0.000           1.000       1.624e-05          0.0048
   3       2.100e-01      -6.394e-01       1.841e-08          -0.000          -0.000           1.000       2.140e-05          0.0063
   4       1.909e-01      -6.394e-01       3.072e-08           0.000           0.000           1.000       2.532e-05          0.0081
   5       1.687e-01      -6.394e-01       2.907e-07           0.000           0.000           1.000       2.776e-05          0.0102
   6       1.449e-01      -6.394e-01       8.378e-07           0.000          -0.000           1.000       2.860e-05          0.0126
   7       1.206e-01      -6.394e-01      -1.127e-08          -0.000          -0.000           1.000       2.776e-05          0.0151
   8       9.745e-02      -6.394e-01      -1.467e-06           0.000           0.001           1.000       2.532e-05          0.0194
   9       7.667e-02      -6.394e-01       1.891e-06          -0.000          -0.001           1.000       2.140e-05          0.0268
  10       5.951e-02      -6.394e-01      -2.255e-07          -0.000          -0.000           1.000       1.624e-05          0.0488
  11       4.694e-02      -6.394e-01      -6.862e-07           0.000           0.000           1.000       1.014e-05          0.1528
  12       3.972e-02      -6.394e-01      -4.085e-07           0.000           0.001           1.000       3.447e-06          0.7475
Strip 2
  13       2.392e-01      -6.374e-01       2.643e-09           0.000          -0.000           1.000       8.671e-06          0.0036
  14       2.347e-01      -6.374e-01       4.756e-09          -0.000          -0.000           1.000       2.551e-05          0.0056
  15       2.243e-01      -6.374e-01      -3.279e-09           0.000           0.000           1.000       4.086e-05          0.0079
  16       2.087e-01      -6.374e-01       1.918e-08          -0.000          -0.000           1.000       5.384e-05          0.0104
  17       1.888e-01      -6.374e-01       3.201e-08           0.000           0.000           1.000       6.369e-05          0.0133
  18       1.657e-01      -6.374e-01       3.030e-07           0.000           0.000           1.000       6.984e-05          0.0168
  19       1.409e-01      -6.374e-01       8.730e-07           0.000          -0.000           1.000       7.193e-05          0.0211
  20       1.156e-01      -6.374e-01      -1.175e-08          -0.000          -0.000           1.000       6.984e-05          0.0258
  21       9.147e-02      -6.374e-01      -1.529e-06           0.000           0.001           1.000       6.369e-05          0.0341
  22       6.982e-02      -6.374e-01       1.971e-06          -0.000          -0.001           1.000       5.384e-05          0.0498
  23       5.193e-02      -6.374e-01      -2.349e-07          -0.000          -0.000           1.000       4.086e-05          0.1144
  24       3.884e-02      -6.374e-01      -7.150e-07           0.000           0.000           1.000       2.551e-05          0.3067
  25       3.131e-02      -6.374e-01      -4.256e-07           0.000           0.001           1.000       8.671e-06          0.7415
Strip 3
  26       2.392e-01      -6.354e-01       2.731e-09           0.000          -0.000           1.000       3.711e-06          0.0043
  27       2.345e-01      -6.354e-01       4.915e-09          -0.000          -0.000           1.000       1.092e-05          0.0069
  28       2.238e-01      -6.354e-01      -3.388e-09           0.000           0.000           1.000       1.749e-05          0.0098
  29       2.077e-01      -6.354e-01       1.982e-08          -0.000          -0.000           1.000       2.305e-05          0.0130
  30       1.871e-01      -6.354e-01       3.308e-08           0.000           0.000           1.000       2.726e-05          0.0167
  31       1.633e-01      -6.354e-01       3.131e-07           0.000           0.000           1.000       2.989e-05          0.0213
  32       1.376e-01      -6.354e-01       9.021e-07           0.000          -0.000           1.000       3.079e-05          0.0271
  33       1.115e-01      -6.354e-01      -1.214e-08          -0.000          -0.000           1.000       2.989e-05          0.0338
  34       8.651e-02      -6.354e-01      -1.580e-06           0.000           0.000           1.000       2.726e-05          0.0462
  35       6.414e-02      -6.354e-01       2.036e-06          -0.000          -0.000           1.000       2.305e-05          0.0726
  36       4.566e-02      -6.354e-01      -2.427e-07          -0.000          -0.000           1.000       1.749e-05          0.1562
  37       3.213e-02      -6.354e-01      -7.388e-07           0.000           0.000           1.000       1.092e-05          0.3069
  38       2.435e-02      -6.354e-01      -4.398e-07           0.000           0.000           1.000       3.711e-06          0.8568
Strip 4
  39       2.392e-01      -6.334e-01       2.775e-09           0.000          -0.000           1.000       9.103e-06          0.0050
  40       2.344e-01      -6.334e-01       4.994e-09          -0.000          -0.000           1.000       2.678e-05          0.0081
  41       2.235e-01      -6.334e-01      -3.443e-09           0.000           0.000           1.000       4.290e-05          0.0116
  42       2.071e-01      -6.334e-01       2.014e-08          -0.000          -0.000           1.000       5.653e-05          0.0154
  43       1.862e-01      -6.334e-01       3.361e-08           0.000           0.000           1.000       6.687e-05          0.0199
  44       1.620e-01      -6.334e-01       3.181e-07           0.000           0.000           1.000       7.333e-05          0.0255
  45       1.359e-01      -6.334e-01       9.166e-07           0.000          -0.000           1.000       7.552e-05          0.0325
  46       1.094e-01      -6.334e-01      -1.233e-08          -0.000          -0.000           1.000       7.333e-05          0.0411
  47       8.405e-02      -6.334e-01      -1.605e-06           0.000           0.000           1.000       6.687e-05          0.0570
  48       6.132e-02      -6.334e-01       2.069e-06          -0.000          -0.000           1.000       5.653e-05          0.0904
  49       4.254e-02      -6.334e-01      -2.466e-07          -0.000          -0.000           1.000       4.290e-05          0.1756
  50       2.879e-02      -6.334e-01      -7.507e-07           0.000           0.000           1.000       2.678e-05          0.3512
  51       2.089e-02      -6.334e-01      -4.469e-07           0.000           0.000           1.000       9.103e-06          0.9461
Strip 5
  52       2.392e-01      -6.314e-01       2.815e-09           0.000          -0.000           1.000       3.825e-06          0.0055
  53       2.343e-01      -6.314e-01       5.066e-09          -0.000          -0.000           1.000       1.125e-05          0.0091
  54       2.233e-01      -6.314e-01      -3.492e-09           0.000           0.000           1.000       1.803e-05          0.0131
  55       2.067e-01      -6.314e-01       2.043e-08          -0.000          -0.000           1.000       2.375e-05          0.0174
  56       1.855e-01      -6.314e-01       3.410e-08           0.000           0.000           1.000       2.810e-05          0.0226
  57       1.609e-01      -6.314e-01       3.227e-07           0.000           0.000           1.000       3.081e-05          0.0290
  58       1.344e-01      -6.314e-01       9.299e-07           0.000          -0.000           1.000       3.174e-05          0.0372
  59       1.075e-01      -6.314e-01      -1.251e-08          -0.000          -0.000           1.000       3.081e-05          0.0473
  60       8.179e-02      -6.314e-01      -1.629e-06           0.000           0.000           1.000       2.810e-05          0.0662
  61       5.873e-02      -6.314e-01       2.099e-06          -0.000          -0.000           1.000       2.375e-05          0.1055
  62       3.968e-02      -6.314e-01      -2.502e-07          -0.000          -0.000           1.000       1.803e-05          0.1951
  63       2.574e-02      -6.314e-01      -7.615e-07           0.000           0.000           1.000       1.125e-05          0.3803
  64       1.772e-02      -6.314e-01      -4.534e-07           0.000           0.000           1.000       3.825e-06          0.9862
Strip 6
  65       2.392e-01      -6.294e-01       2.846e-09           0.000          -0.000           1.000       9.338e-06          0.0060
  66       2.343e-01      -6.294e-01       5.122e-09          -0.000          -0.000           1.000       2.747e-05          0.0100
  67       2.231e-01      -6.294e-01      -3.531e-09           0.000           0.000           1.000       4.401e-05          0.0145
  68       2.063e-01      -6.294e-01       2.065e-08          -0.000          -0.000           1.000       5.799e-05          0.0194
  69       1.849e-01      -6.294e-01       3.448e-08           0.000           0.000           1.000       6.860e-05          0.0251
  70       1.600e-01      -6.294e-01       3.263e-07           0.000           0.000           1.000       7.522e-05          0.0323
  71       1.332e-01      -6.294e-01       9.402e-07           0.000          -0.000           1.000       7.747e-05          0.0415
  72       1.060e-01      -6.294e-01      -1.265e-08          -0.000          -0.000           1.000       7.522e-05          0.0532
  73       8.003e-02      -6.294e-01      -1.647e-06           0.000           0.000           1.000       6.860e-05          0.0750
  74       5.672e-02      -6.294e-01       2.122e-06          -0.000          -0.000           1.000       5.799e-05          0.1192
  75       3.745e-02      -6.294e-01      -2.530e-07          -0.000          -0.000           1.000       4.401e-05          0.2120
  76       2.335e-02      -6.294e-01      -7.700e-07           0.000           0.000           1.000       2.747e-05          0.4072
  77       1.524e-02      -6.294e-01      -4.584e-07           0.000           0.000           1.000       9.338e-06          1.0274
Strip 7
  78       2.392e-01      -6.277e-01       2.871e-09           0.000          -0.000           1.000       1.785e-06          0.0063
  79       2.342e-01      -6.277e-01       5.167e-09          -0.000          -0.000           1.000       5.250e-06          0.0106
  80       2.229e-01      -6.277e-01      -3.562e-09           0.000           0.000           1.000       8.410e-06          0.0154
  81       2.060e-01      -6.277e-01       2.083e-08          -0.000          -0.000           1.000       1.108e-05          0.0206
  82       1.844e-01      -6.277e-01       3.477e-08           0.000           0.000           1.000       1.311e-05          0.0268
  83       1.593e-01      -6.277e-01       3.291e-07           0.000           0.000           1.000       1.438e-05          0.0345
  84       1.323e-01      -6.277e-01       9.483e-07           0.000          -0.000           1.000       1.481e-05          0.0444
  85       1.049e-01      -6.277e-01      -1.276e-08          -0.000          -0.000           1.000       1.438e-05          0.0572
  86       7.865e-02      -6.277e-01      -1.661e-06           0.000           0.000           1.000       1.311e-05          0.0808
  87       5.513e-02      -6.277e-01       2.141e-06          -0.000          -0.000           1.000       1.108e-05          0.1275
  88       3.570e-02      -6.277e-01      -2.552e-07          -0.000          -0.000           1.000       8.410e-06          0.2222
  89       2.148e-02      -6.277e-01      -7.767e-07           0.000           0.000           1.000       5.250e-06          0.4201
  90       1.330e-02      -6.277e-01      -4.624e-07           0.000           0.000           1.000       1.785e-06          1.0589
Strip 8
  91       2.392e-01      -6.267e-01       2.880e-09           0.000          -0.000           1.000       4.892e-06          0.0065
  92       2.342e-01      -6.267e-01       5.184e-09          -0.000          -0.000           1.000       1.439e-05          0.0111
  93       2.229e-01      -6.267e-01      -3.574e-09           0.000           0.000           1.000       2.305e-05          0.0162
  94       2.059e-01      -6.267e-01       2.090e-08          -0.000          -0.000           1.000       3.038e-05          0.0217
  95       1.842e-01      -6.267e-01       3.489e-08           0.000           0.000           1.000       3.593e-05          0.0283
  96       1.591e-01      -6.267e-01       3.302e-07           0.000           0.000           1.000       3.940e-05          0.0364
  97       1.320e-01      -6.267e-01       9.514e-07           0.000          -0.000           1.000       4.058e-05          0.0470
  98       1.044e-01      -6.267e-01      -1.280e-08          -0.000          -0.000           1.000       3.940e-05          0.0607
  99       7.812e-02      -6.267e-01      -1.666e-06           0.000           0.000           1.000       3.593e-05          0.0861
 100       5.452e-02      -6.267e-01       2.148e-06          -0.000          -0.000           1.000       3.038e-05          0.1348
 101       3.503e-02      -6.267e-01      -2.560e-07          -0.000          -0.000           1.000       2.305e-05          0.2309
 102       2.076e-02      -6.267e-01      -7.792e-07           0.000           0.000           1.000       1.439e-05          0.4267
 103       1.255e-02      -6.267e-01      -4.639e-07           0.000           0.000           1.000       4.892e-06          1.1132
Strip 9
 104       2.392e-01      -6.250e-01       2.896e-09           0.000          -0.000           1.000       6.720e-06          0.0069
 105       2.342e-01      -6.250e-01       5.213e-09          -0.000          -0.000           1.000       1.977e-05          0.0118
 106       2.228e-01      -6.250e-01      -3.594e-09           0.000           0.000           1.000       3.167e-05          0.0172
 107       2.057e-01      -6.250e-01       2.102e-08          -0.000          -0.000           1.000       4.173e-05          0.0232
 108       1.839e-01      -6.250e-01       3.509e-08           0.000           0.000           1.000       4.936e-05          0.0302
 109       1.586e-01      -6.250e-01       3.320e-07           0.000           0.000           1.000       5.413e-05          0.0390
 110       1.313e-01      -6.250e-01       9.568e-07           0.000          -0.000           1.000       5.575e-05          0.0504
 111       1.037e-01      -6.250e-01      -1.288e-08          -0.000          -0.000           1.000       5.413e-05          0.0652
 112       7.720e-02      -6.250e-01      -1.676e-06           0.000           0.000           1.000       4.936e-05          0.0927
 113       5.348e-02      -6.250e-01       2.160e-06          -0.000          -0.000           1.000       4.173e-05          0.1438
 114       3.387e-02      -6.250e-01      -2.575e-07          -0.000          -0.000           1.000       3.167e-05          0.2411
 115       1.952e-02      -6.250e-01      -7.836e-07           0.000           0.000           1.000       1.977e-05          0.4414
 116       1.127e-02      -6.250e-01      -4.665e-07           0.000           0.000           1.000       6.720e-06          1.1601
Strip 10
 117       2.392e-01      -6.239e-01       2.906e-09           0.000          -0.000           1.000       4.595e-07          0.0070
 118       2.341e-01      -6.239e-01       5.231e-09          -0.000          -0.000           1.000       1.352e-06          0.0120
 119       2.227e-01      -6.239e-01      -3.606e-09           0.000           0.000           1.000       2.166e-06          0.0176
 120       2.056e-01      -6.239e-01       2.109e-08          -0.000          -0.000           1.000       2.854e-06          0.0237
 121       1.837e-01      -6.239e-01       3.521e-08           0.000           0.000           1.000       3.376e-06          0.0309
 122       1.583e-01      -6.239e-01       3.332e-07           0.000           0.000           1.000       3.702e-06          0.0399
 123       1.310e-01      -6.239e-01       9.601e-07           0.000          -0.000           1.000       3.812e-06          0.0516
 124       1.032e-01      -6.239e-01      -1.292e-08          -0.000          -0.000           1.000       3.702e-06          0.0670
 125       7.664e-02      -6.239e-01      -1.682e-06           0.000           0.000           1.000       3.376e-06          0.0951
 126       5.283e-02      -6.239e-01       2.167e-06          -0.000          -0.000           1.000       2.854e-06          0.1471
 127       3.316e-02      -6.239e-01      -2.584e-07          -0.000          -0.000           1.000       2.166e-06          0.2453
 128       1.876e-02      -6.239e-01      -7.863e-07           0.000           0.000           1.000       1.352e-06          0.4482
 129       1.048e-02      -6.239e-01      -4.681e-07           0.000           0.000           1.000       4.595e-07          1.1659
Strip 11
 130       2.392e-01      -6.237e-01       2.909e-09           0.000           0.000           1.000       1.348e-06          0.0071
 131       2.341e-01      -6.237e-01       5.236e-09          -0.000          -0.000           1.000       3.967e-06          0.0122
 132       2.227e-01      -6.237e-01      -3.609e-09           0.000           0.000           1.000       6.355e-06          0.0179
 133       2.056e-01      -6.237e-01       2.111e-08          -0.000          -0.000           1.000       8.373e-06          0.0242
 134       1.836e-01      -6.237e-01       3.524e-08           0.000           0.000           1.000       9.905e-06          0.0315
 135       1.583e-01      -6.237e-01       3.335e-07           0.000           0.000           1.000       1.086e-05          0.0407
 136       1.309e-01      -6.237e-01       9.610e-07           0.000          -0.000           1.000       1.119e-05          0.0527
 137       1.031e-01      -6.237e-01      -1.293e-08          -0.000          -0.000           1.000       1.086e-05          0.0684
 138       7.650e-02      -6.237e-01      -1.683e-06           0.000           0.000           1.000       9.905e-06          0.0973
 139       5.267e-02      -6.237e-01       2.169e-06          -0.000          -0.000           1.000       8.373e-06          0.1500
 140       3.298e-02      -6.237e-01      -2.586e-07          -0.000          -0.000           1.000       6.355e-06          0.2490
 141       1.857e-02      -6.237e-01      -7.870e-07           0.000           0.000           1.000       3.967e-06          0.4544
 142       1.028e-02      -6.237e-01      -4.685e-07           0.000           0.000           1.000       1.348e-06          1.1721
Strip 12
 143       2.392e-01      -6.231e-01       2.914e-09           0.000          -0.000           1.000       2.149e-06          0.0073
 144       2.341e-01      -6.231e-01       5.244e-09          -0.000          -0.000           1.000       6.321e-06          0.0125
 145       2.227e-01      -6.231e-01      -3.615e-09           0.000           0.000           1.000       1.013e-05          0.0183
 146       2.055e-01      -6.231e-01       2.115e-08          -0.000          -0.000           1.000       1.334e-05          0.0247
 147       1.835e-01      -6.231e-01       3.530e-08           0.000           0.000           1.000       1.578e-05          0.0323
 148       1.581e-01      -6.231e-01       3.340e-07           0.000           0.000           1.000       1.731e-05          0.0417
 149       1.307e-01      -6.231e-01       9.626e-07           0.000          -0.000           1.000       1.783e-05          0.0540
 150       1.029e-01      -6.231e-01      -1.295e-08          -0.000          -0.000           1.000       1.731e-05          0.0702
 151       7.622e-02      -6.231e-01      -1.686e-06           0.000           0.000           1.000       1.578e-05          0.0999
 152       5.236e-02      -6.231e-01       2.173e-06          -0.000          -0.000           1.000       1.334e-05          0.1535
 153       3.263e-02      -6.231e-01      -2.590e-07          -0.000          -0.000           1.000       1.013e-05          0.2537
 154       1.820e-02      -6.231e-01      -7.883e-07           0.000           0.000           1.000       6.321e-06          0.4622
 155       9.895e-03      -6.231e-01      -4.693e-07           0.000           0.000           1.000       2.149e-06          1.1777
Strip 13
 156       2.392e-01      -6.224e-01       2.921e-09           0.000          -0.000           1.000       2.807e-06          0.0074
 157       2.341e-01      -6.224e-01       5.257e-09          -0.000          -0.000           1.000       8.257e-06          0.0128
 158       2.227e-01      -6.224e-01      -3.624e-09           0.000           0.000           1.000       1.323e-05          0.0188
 159       2.054e-01      -6.224e-01       2.120e-08          -0.000          -0.000           1.000       1.743e-05          0.0254
 160       1.834e-01      -6.224e-01       3.538e-08           0.000           0.000           1.000       2.062e-05          0.0331
 161       1.579e-01      -6.224e-01       3.348e-07           0.000           0.000           1.000       2.261e-05          0.0429
 162       1.304e-01      -6.224e-01       9.648e-07           0.000          -0.000           1.000       2.329e-05          0.0556
 163       1.025e-01      -6.224e-01      -1.298e-08          -0.000          -0.000           1.000       2.261e-05          0.0724
 164       7.584e-02      -6.224e-01      -1.690e-06           0.000           0.000           1.000       2.062e-05          0.1030
 165       5.191e-02      -6.224e-01       2.178e-06          -0.000          -0.000           1.000       1.743e-05          0.1577
 166       3.214e-02      -6.224e-01      -2.596e-07          -0.000          -0.000           1.000       1.323e-05          0.2594
 167       1.767e-02      -6.224e-01      -7.902e-07           0.000           0.000           1.000       8.257e-06          0.4715
 168       9.352e-03      -6.224e-01      -4.704e-07           0.000           0.000           1.000       2.807e-06          1.1809
Strip 14
 169       2.392e-01      -6.215e-01       2.929e-09           0.000          -0.000           1.000       3.278e-06          0.0076
 170       2.341e-01      -6.215e-01       5.272e-09          -0.000          -0.000           1.000       9.643e-06          0.0131
 171       2.226e-01      -6.215e-01      -3.634e-09           0.000           0.000           1.000       1.545e-05          0.0193
 172       2.053e-01      -6.215e-01       2.126e-08          -0.000          -0.000           1.000       2.036e-05          0.0261
 173       1.833e-01      -6.215e-01       3.548e-08           0.000           0.000           1.000       2.408e-05          0.0341
 174       1.577e-01      -6.215e-01       3.358e-07           0.000           0.000           1.000       2.640e-05          0.0442
 175       1.301e-01      -6.215e-01       9.676e-07           0.000          -0.000           1.000       2.719e-05          0.0573
 176       1.021e-01      -6.215e-01      -1.302e-08          -0.000          -0.000           1.000       2.640e-05          0.0748
 177       7.536e-02      -6.215e-01      -1.695e-06           0.000           0.000           1.000       2.408e-05          0.1064
 178       5.137e-02      -6.215e-01       2.184e-06          -0.000          -0.000           1.000       2.036e-05          0.1624
 179       3.154e-02      -6.215e-01      -2.604e-07          -0.000          -0.000           1.000       1.545e-05          0.2658
 180       1.703e-02      -6.215e-01      -7.925e-07           0.000           0.000           1.000       9.643e-06          0.4820
 181       8.687e-03      -6.215e-01      -4.718e-07           0.000           0.000           1.000       3.278e-06          1.1807
Strip 15
 182       2.391e-01      -6.205e-01       2.938e-09           0.000          -0.000           1.000       3.529e-06          0.0078
 183       2.341e-01      -6.205e-01       5.289e-09          -0.000          -0.000           1.000       1.038e-05          0.0134
 184       2.225e-01      -6.205e-01      -3.646e-09           0.000           0.000           1.000       1.663e-05          0.0198
 185       2.052e-01      -6.205e-01       2.132e-08          -0.000          -0.000           1.000       2.191e-05          0.0269
 186       1.831e-01      -6.205e-01       3.560e-08           0.000           0.000           1.000       2.592e-05          0.0351
 187       1.574e-01      -6.205e-01       3.369e-07           0.000           0.000           1.000       2.843e-05          0.0455
 188       1.298e-01      -6.205e-01       9.707e-07           0.000          -0.000           1.000       2.928e-05          0.0591
 189       1.017e-01      -6.205e-01      -1.306e-08          -0.000          -0.000           1.000       2.843e-05          0.0772
 190       7.484e-02      -6.205e-01      -1.700e-06           0.000           0.000           1.000       2.592e-05          0.1099
 191       5.076e-02      -6.205e-01       2.191e-06          -0.000          -0.000           1.000       2.191e-05          0.1671
 192       3.087e-02      -6.205e-01      -2.612e-07          -0.000          -0.000           1.000       1.663e-05          0.2724
 193       1.632e-02      -6.205e-01      -7.950e-07           0.000           0.000           1.000       1.038e-05          0.4925
 194       7.945e-03      -6.205e-01      -4.733e-07           0.000           0.000           1.000       3.529e-06          1.1786
Strip 16
 195       2.391e-01      -6.200e-01       2.943e-09           0.000          -0.000           1.000       1.168e-07          0.0078
 196       2.341e-01      -6.200e-01       5.298e-09          -0.000          -0.000           1.000       3.437e-07          0.0135
 197       2.225e-01      -6.200e-01      -3.652e-09           0.000           0.000           1.000       5.507e-07          0.0200
 198       2.051e-01      -6.200e-01       2.136e-08          -0.000          -0.000           1.000       7.256e-07          0.0270
 199       1.830e-01      -6.200e-01       3.566e-08           0.000           0.000           1.000       8.583e-07          0.0354
 200       1.573e-01      -6.200e-01       3.374e-07           0.000           0.000           1.000       9.412e-07          0.0458
 201       1.296e-01      -6.200e-01       9.724e-07           0.000          -0.000           1.000       9.694e-07          0.0595
 202       1.015e-01      -6.200e-01      -1.309e-08          -0.000          -0.000           1.000       9.412e-07          0.0778
 203       7.456e-02      -6.200e-01      -1.703e-06           0.000           0.000           1.000       8.583e-07          0.1107
 204       5.044e-02      -6.200e-01       2.195e-06          -0.000          -0.000           1.000       7.256e-07          0.1682
 205       3.052e-02      -6.200e-01      -2.617e-07          -0.000          -0.000           1.000       5.507e-07          0.2738
 206       1.594e-02      -6.200e-01      -7.963e-07           0.000           0.000           1.000       3.437e-07          0.4941
 207       7.552e-03      -6.200e-01      -4.741e-07           0.000           0.000           1.000       1.168e-07          1.1800
Strip 17
 208       2.391e-01      -6.199e-01       2.944e-09           0.000           0.000           1.000       3.486e-07          0.0078
 209       2.341e-01      -6.199e-01       5.299e-09          -0.000          -0.000           1.000       1.025e-06          0.0136
 210       2.225e-01      -6.199e-01      -3.653e-09           0.000           0.000           1.000       1.643e-06          0.0201
 211       2.051e-01      -6.199e-01       2.136e-08          -0.000          -0.000           1.000       2.165e-06          0.0272
 212       1.830e-01      -6.199e-01       3.566e-08           0.000           0.000           1.000       2.561e-06          0.0356
 213       1.573e-01      -6.199e-01       3.375e-07           0.000           0.000           1.000       2.808e-06          0.0461
 214       1.296e-01      -6.199e-01       9.725e-07           0.000          -0.000           1.000       2.892e-06          0.0599
 215       1.014e-01      -6.199e-01      -1.309e-08          -0.000          -0.000           1.000       2.808e-06          0.0783
 216       7.453e-02      -6.199e-01      -1.703e-06           0.000           0.000           1.000       2.561e-06          0.1115
 217       5.042e-02      -6.199e-01       2.195e-06          -0.000          -0.000           1.000       2.165e-06          0.1692
 218       3.049e-02      -6.199e-01      -2.617e-07          -0.000          -0.000           1.000       1.643e-06          0.2752
 219       1.591e-02      -6.199e-01      -7.965e-07           0.000           0.000           1.000       1.025e-06          0.4958
 220       7.519e-03      -6.199e-01      -4.742e-07           0.000           0.000           1.000       3.486e-07          1.1827
Strip 18
 221       2.391e-01      -6.198e-01       2.945e-09           0.000          -0.000           1.000       5.745e-07          0.0079
 222       2.341e-01      -6.198e-01       5.300e-09          -0.000          -0.000           1.000       1.690e-06          0.0137
 223       2.225e-01      -6.198e-01      -3.654e-09           0.000           0.000           1.000       2.708e-06          0.0202
 224       2.051e-01      -6.198e-01       2.137e-08          -0.000          -0.000           1.000       3.568e-06          0.0274
 225       1.830e-01      -6.198e-01       3.567e-08           0.000           0.000           1.000       4.220e-06          0.0359
 226       1.573e-01      -6.198e-01       3.376e-07           0.000           0.000           1.000       4.628e-06          0.0465
 227       1.295e-01      -6.198e-01       9.728e-07           0.000          -0.000           1.000       4.766e-06          0.0604
 228       1.014e-01      -6.198e-01      -1.309e-08          -0.000          -0.000           1.000       4.628e-06          0.0789
 229       7.449e-02      -6.198e-01      -1.704e-06           0.000           0.000           1.000       4.220e-06          0.1123
 230       5.036e-02      -6.198e-01       2.196e-06          -0.000          -0.000           1.000       3.568e-06          0.1704
 231       3.043e-02      -6.198e-01      -2.618e-07          -0.000          -0.000           1.000       2.708e-06          0.2768
 232       1.584e-02      -6.198e-01      -7.967e-07           0.000           0.000           1.000       1.690e-06          0.4976
 233       7.452e-03      -6.198e-01      -4.743e-07           0.000           0.000           1.000       5.745e-07          1.1866
Strip 19
 234       2.391e-01      -6.196e-01       2.946e-09           0.000          -0.000           1.000       7.908e-07          0.0079
 235       2.341e-01      -6.196e-01       5.302e-09          -0.000          -0.000           1.000       2.327e-06          0.0138
 236       2.225e-01      -6.196e-01      -3.655e-09           0.000           0.000           1.000       3.727e-06          0.0204
 237       2.051e-01      -6.196e-01       2.138e-08          -0.000          -0.000           1.000       4.911e-06          0.0276
 238       1.829e-01      -6.196e-01       3.569e-08           0.000           0.000           1.000       5.809e-06          0.0362
 239       1.572e-01      -6.196e-01       3.377e-07           0.000           0.000           1.000       6.370e-06          0.0469
 240       1.295e-01      -6.196e-01       9.732e-07           0.000          -0.000           1.000       6.561e-06          0.0609
 241       1.013e-01      -6.196e-01      -1.310e-08          -0.000          -0.000           1.000       6.370e-06          0.0797
 242       7.442e-02      -6.196e-01      -1.704e-06           0.000           0.000           1.000       5.809e-06          0.1134
 243       5.028e-02      -6.196e-01       2.197e-06          -0.000          -0.000           1.000       4.911e-06          0.1718
 244       3.034e-02      -6.196e-01      -2.619e-07          -0.000          -0.000           1.000       3.727e-06          0.2786
 245       1.575e-02      -6.196e-01      -7.970e-07           0.000           0.000           1.000       2.327e-06          0.4993
 246       7.353e-03      -6.196e-01      -4.745e-07           0.000           0.000           1.000       7.908e-07          1.1921
Strip 20
 247       2.391e-01      -6.193e-01       2.948e-09           0.000          -0.000           1.000       9.939e-07          0.0080
 248       2.341e-01      -6.193e-01       5.305e-09          -0.000          -0.000           1.000       2.924e-06          0.0139
 249       2.225e-01      -6.193e-01      -3.657e-09           0.000           0.000           1.000       4.684e-06          0.0205
 250       2.051e-01      -6.193e-01       2.139e-08          -0.000          -0.000           1.000       6.172e-06          0.0279
 251       1.829e-01      -6.193e-01       3.571e-08           0.000           0.000           1.000       7.301e-06          0.0365
 252       1.572e-01      -6.193e-01       3.379e-07           0.000           0.000           1.000       8.006e-06          0.0473
 253       1.294e-01      -6.193e-01       9.737e-07           0.000          -0.000           1.000       8.246e-06          0.0615
 254       1.013e-01      -6.193e-01      -1.310e-08          -0.000          -0.000           1.000       8.006e-06          0.0805
 255       7.432e-02      -6.193e-01      -1.705e-06           0.000           0.000           1.000       7.301e-06          0.1145
 256       5.018e-02      -6.193e-01       2.198e-06          -0.000          -0.000           1.000       6.172e-06          0.1733
 257       3.022e-02      -6.193e-01      -2.620e-07          -0.000          -0.000           1.000       4.684e-06          0.2806
 258       1.562e-02      -6.193e-01      -7.975e-07           0.000           0.000           1.000       2.924e-06          0.5011
 259       7.224e-03      -6.193e-01      -4.748e-07           0.000           0.000           1.000       9.939e-07          1.1991
Strip 21
 260       2.391e-01      -6.190e-01       2.950e-09           0.000          -0.000           1.000       1.180e-06          0.0081
 261       2.341e-01      -6.190e-01       5.309e-09          -0.000          -0.000           1.000       3.473e-06          0.0140
 262       2.225e-01      -6.190e-01      -3.660e-09           0.000           0.000           1.000       5.563e-06          0.0208
 263       2.051e-01      -6.190e-01       2.141e-08          -0.000          -0.000           1.000       7.330e-06          0.0282
 264       1.829e-01      -6.190e-01       3.573e-08           0.000           0.000           1.000       8.671e-06          0.0369
 265       1.571e-01      -6.190e-01       3.381e-07           0.000           0.000           1.000       9.508e-06          0.0478
 266       1.293e-01      -6.190e-01       9.744e-07           0.000          -0.000           1.000       9.793e-06          0.0622
 267       1.012e-01      -6.190e-01      -1.311e-08          -0.000          -0.000           1.000       9.508e-06          0.0814
 268       7.421e-02      -6.190e-01      -1.707e-06           0.000           0.000           1.000       8.671e-06          0.1158
 269       5.005e-02      -6.190e-01       2.199e-06          -0.000          -0.000           1.000       7.330e-06          0.1751
 270       3.008e-02      -6.190e-01      -2.622e-07          -0.000          -0.000           1.000       5.563e-06          0.2828
 271       1.547e-02      -6.190e-01      -7.980e-07           0.000           0.000           1.000       3.473e-06          0.5031
 272       7.067e-03      -6.190e-01      -4.751e-07           0.000           0.000           1.000       1.180e-06          1.2071
Strip 22
 273       2.391e-01      -6.186e-01       2.952e-09           0.000          -0.000           1.000       1.347e-06          0.0081
 274       2.341e-01      -6.186e-01       5.313e-09          -0.000          -0.000           1.000       3.963e-06          0.0141
 275       2.225e-01      -6.186e-01      -3.663e-09           0.000           0.000           1.000       6.348e-06          0.0210
 276       2.050e-01      -6.186e-01       2.142e-08          -0.000          -0.000           1.000       8.365e-06          0.0285
 277       1.828e-01      -6.186e-01       3.576e-08           0.000           0.000           1.000       9.895e-06          0.0373
 278       1.570e-01      -6.186e-01       3.384e-07           0.000           0.000           1.000       1.085e-05          0.0484
 279       1.293e-01      -6.186e-01       9.752e-07           0.000          -0.000           1.000       1.118e-05          0.0629
 280       1.011e-01      -6.186e-01      -1.312e-08          -0.000          -0.000           1.000       1.085e-05          0.0824
 281       7.408e-02      -6.186e-01      -1.708e-06           0.000           0.000           1.000       9.895e-06          0.1173
 282       4.990e-02      -6.186e-01       2.201e-06          -0.000          -0.000           1.000       8.365e-06          0.1770
 283       2.992e-02      -6.186e-01      -2.624e-07          -0.000          -0.000           1.000       6.348e-06          0.2852
 284       1.530e-02      -6.186e-01      -7.986e-07           0.000           0.000           1.000       3.963e-06          0.5056
 285       6.884e-03      -6.186e-01      -4.755e-07           0.000           0.000           1.000       1.347e-06          1.2154
Strip 23
 286       2.391e-01      -6.182e-01       2.954e-09           0.000          -0.000           1.000       1.491e-06          0.0082
 287       2.341e-01      -6.182e-01       5.318e-09          -0.000          -0.000           1.000       4.386e-06          0.0143
 288       2.225e-01      -6.182e-01      -3.666e-09           0.000           0.000           1.000       7.027e-06          0.0212
 289       2.050e-01      -6.182e-01       2.144e-08          -0.000          -0.000           1.000       9.259e-06          0.0288
 290       1.828e-01      -6.182e-01       3.579e-08           0.000           0.000           1.000       1.095e-05          0.0378
 291       1.570e-01      -6.182e-01       3.387e-07           0.000           0.000           1.000       1.201e-05          0.0490
 292       1.292e-01      -6.182e-01       9.760e-07           0.000          -0.000           1.000       1.237e-05          0.0638
 293       1.009e-01      -6.182e-01      -1.313e-08          -0.000          -0.000           1.000       1.201e-05          0.0835
 294       7.394e-02      -6.182e-01      -1.709e-06           0.000           0.000           1.000       1.095e-05          0.1188
 295       4.973e-02      -6.182e-01       2.203e-06          -0.000          -0.000           1.000       9.259e-06          0.1790
 296       2.973e-02      -6.182e-01      -2.626e-07          -0.000          -0.000           1.000       7.027e-06          0.2878
 297       1.510e-02      -6.182e-01      -7.993e-07           0.000           0.000           1.000       4.386e-06          0.5086
 298       6.679e-03      -6.182e-01      -4.759e-07           0.000           0.000           1.000       1.491e-06          1.2232
Strip 24
 299       2.391e-01      -6.178e-01       2.957e-09           0.000          -0.000           1.000       1.610e-06          0.0083
 300       2.340e-01      -6.178e-01       5.323e-09          -0.000          -0.000           1.000       4.736e-06          0.0145
 301       2.224e-01      -6.178e-01      -3.669e-09           0.000           0.000           1.000       7.587e-06          0.0215
 302       2.050e-01      -6.178e-01       2.146e-08          -0.000          -0.000           1.000       9.997e-06          0.0292
 303       1.827e-01      -6.178e-01       3.582e-08           0.000           0.000           1.000       1.183e-05          0.0383
 304       1.569e-01      -6.178e-01       3.390e-07           0.000           0.000           1.000       1.297e-05          0.0497
 305       1.291e-01      -6.178e-01       9.770e-07           0.000          -0.000           1.000       1.336e-05          0.0646
 306       1.008e-01      -6.178e-01      -1.315e-08          -0.000          -0.000           1.000       1.297e-05          0.0847
 307       7.378e-02      -6.178e-01      -1.711e-06           0.000           0.000           1.000       1.183e-05          0.1205
 308       4.955e-02      -6.178e-01       2.205e-06          -0.000          -0.000           1.000       9.997e-06          0.1812
 309       2.953e-02      -6.178e-01      -2.629e-07          -0.000          -0.000           1.000       7.587e-06          0.2906
 310       1.488e-02      -6.178e-01      -8.001e-07           0.000           0.000           1.000       4.736e-06          0.5124
 311       6.456e-03      -6.178e-01      -4.763e-07           0.000           0.000           1.000       1.610e-06          1.2303
Strip 25
 312       2.391e-01      -6.173e-01       2.960e-09           0.000          -0.000           1.000       1.701e-06          0.0084
 313       2.340e-01      -6.173e-01       5.328e-09          -0.000          -0.000           1.000       5.005e-06          0.0146
 314       2.224e-01      -6.173e-01      -3.673e-09           0.000           0.000           1.000       8.019e-06          0.0218
 315       2.049e-01      -6.173e-01       2.148e-08          -0.000          -0.000           1.000       1.057e-05          0.0296
 316       1.826e-01      -6.173e-01       3.586e-08           0.000           0.000           1.000       1.250e-05          0.0388
 317       1.568e-01      -6.173e-01       3.394e-07           0.000           0.000           1.000       1.371e-05          0.0504
 318       1.289e-01      -6.173e-01       9.780e-07           0.000          -0.000           1.000       1.412e-05          0.0656
 319       1.007e-01      -6.173e-01      -1.316e-08          -0.000          -0.000           1.000       1.371e-05          0.0860
 320       7.361e-02      -6.173e-01      -1.713e-06           0.000           0.000           1.000       1.250e-05          0.1222
 321       4.936e-02      -6.173e-01       2.207e-06          -0.000          -0.000           1.000       1.057e-05          0.1834
 322       2.932e-02      -6.173e-01      -2.632e-07          -0.000          -0.000           1.000       8.019e-06          0.2934
 323       1.465e-02      -6.173e-01      -8.009e-07           0.000           0.000           1.000       5.005e-06          0.5167
 324       6.217e-03      -6.173e-01      -4.768e-07           0.000           0.000           1.000       1.701e-06          1.2364
Strip 26
 325       2.391e-01      -6.168e-01       2.963e-09           0.000          -0.000           1.000       1.764e-06          0.0085
 326       2.340e-01      -6.168e-01       5.334e-09          -0.000          -0.000           1.000       5.190e-06          0.0148
 327       2.224e-01      -6.168e-01      -3.677e-09           0.000           0.000           1.000       8.314e-06          0.0220
 328       2.049e-01      -6.168e-01       2.151e-08          -0.000          -0.000           1.000       1.096e-05          0.0300
 329       1.826e-01      -6.168e-01       3.590e-08           0.000           0.000           1.000       1.296e-05          0.0393
 330       1.567e-01      -6.168e-01       3.397e-07           0.000           0.000           1.000       1.421e-05          0.0511
 331       1.288e-01      -6.168e-01       9.790e-07           0.000          -0.000           1.000       1.464e-05          0.0665
 332       1.005e-01      -6.168e-01      -1.317e-08          -0.000          -0.000           1.000       1.421e-05          0.0872
 333       7.343e-02      -6.168e-01      -1.715e-06           0.000           0.000           1.000       1.296e-05          0.1239
 334       4.915e-02      -6.168e-01       2.210e-06          -0.000          -0.000           1.000       1.096e-05          0.1856
 335       2.909e-02      -6.168e-01      -2.634e-07          -0.000          -0.000           1.000       8.314e-06          0.2963
 336       1.441e-02      -6.168e-01      -8.018e-07           0.000           0.000           1.000       5.190e-06          0.5213
 337       5.968e-03      -6.168e-01      -4.773e-07           0.000           0.000           1.000       1.764e-06          1.2420
Strip 27
 338       2.391e-01      -6.163e-01       2.967e-09           0.000          -0.000           1.000       1.797e-06          0.0086
 339       2.340e-01      -6.163e-01       5.340e-09          -0.000          -0.000           1.000       5.286e-06          0.0150
 340       2.224e-01      -6.163e-01      -3.681e-09           0.000           0.000           1.000       8.468e-06          0.0223
 341       2.049e-01      -6.163e-01       2.153e-08          -0.000          -0.000           1.000       1.116e-05          0.0304
 342       1.825e-01      -6.163e-01       3.594e-08           0.000           0.000           1.000       1.320e-05          0.0398
 343       1.566e-01      -6.163e-01       3.401e-07           0.000           0.000           1.000       1.447e-05          0.0518
 344       1.287e-01      -6.163e-01       9.801e-07           0.000          -0.000           1.000       1.491e-05          0.0674
 345       1.004e-01      -6.163e-01      -1.319e-08          -0.000          -0.000           1.000       1.447e-05          0.0885
 346       7.325e-02      -6.163e-01      -1.717e-06           0.000           0.000           1.000       1.320e-05          0.1256
 347       4.894e-02      -6.163e-01       2.212e-06          -0.000          -0.000           1.000       1.116e-05          0.1878
 348       2.886e-02      -6.163e-01      -2.637e-07          -0.000          -0.000           1.000       8.468e-06          0.2991
 349       1.417e-02      -6.163e-01      -8.026e-07           0.000           0.000           1.000       5.286e-06          0.5259
 350       5.712e-03      -6.163e-01      -4.778e-07           0.000           0.000           1.000       1.797e-06          1.2481
Strip 28
 351       2.391e-01      -6.160e-01       2.968e-09           0.000           0.000           1.000       1.178e-07          0.0086
 352       2.340e-01      -6.160e-01       5.343e-09          -0.000          -0.000           1.000       3.467e-07          0.0150
 353       2.224e-01      -6.160e-01      -3.683e-09           0.000           0.000           1.000       5.553e-07          0.0224
 354       2.049e-01      -6.160e-01       2.154e-08          -0.000          -0.000           1.000       7.317e-07          0.0305
 355       1.825e-01      -6.160e-01       3.596e-08           0.000           0.000           1.000       8.656e-07          0.0400
 356       1.566e-01      -6.160e-01       3.403e-07           0.000           0.000           1.000       9.492e-07          0.0520
 357       1.286e-01      -6.160e-01       9.806e-07           0.000          -0.000           1.000       9.776e-07          0.0677
 358       1.003e-01      -6.160e-01      -1.320e-08          -0.000          -0.000           1.000       9.492e-07          0.0889
 359       7.315e-02      -6.160e-01      -1.717e-06           0.000           0.000           1.000       8.656e-07          0.1262
 360       4.884e-02      -6.160e-01       2.213e-06          -0.000          -0.000           1.000       7.317e-07          0.1886
 361       2.874e-02      -6.160e-01      -2.639e-07          -0.000          -0.000           1.000       5.553e-07          0.3000
 362       1.404e-02      -6.160e-01      -8.031e-07           0.000           0.000           1.000       3.467e-07          0.5270
 363       5.578e-03      -6.160e-01      -4.781e-07           0.000           0.000           1.000       1.178e-07          1.2519
Strip 29
 364       2.391e-01      -6.159e-01       2.969e-09           0.000          -0.000           1.000       3.515e-07          0.0086
 365       2.340e-01      -6.159e-01       5.343e-09          -0.000          -0.000           1.000       1.034e-06          0.0151
 366       2.224e-01      -6.159e-01      -3.683e-09           0.000           0.000           1.000       1.657e-06          0.0225
 367       2.048e-01      -6.159e-01       2.154e-08          -0.000          -0.000           1.000       2.183e-06          0.0306
 368       1.825e-01      -6.159e-01       3.596e-08           0.000           0.000           1.000       2.582e-06          0.0402
 369       1.566e-01      -6.159e-01       3.403e-07           0.000           0.000           1.000       2.832e-06          0.0522
 370       1.286e-01      -6.159e-01       9.807e-07           0.000          -0.000           1.000       2.916e-06          0.0680
 371       1.003e-01      -6.159e-01      -1.320e-08          -0.000          -0.000           1.000       2.832e-06          0.0893
 372       7.314e-02      -6.159e-01      -1.718e-06           0.000           0.000           1.000       2.582e-06          0.1268
 373       4.882e-02      -6.159e-01       2.214e-06          -0.000          -0.000           1.000       2.183e-06          0.1893
 374       2.873e-02      -6.159e-01      -2.639e-07          -0.000          -0.000           1.000       1.657e-06          0.3008
 375       1.402e-02      -6.159e-01      -8.032e-07           0.000           0.000           1.000       1.034e-06          0.5281
 376       5.561e-03      -6.159e-01      -4.781e-07           0.000           0.000           1.000       3.515e-07          1.2556
Strip 30
 377       2.391e-01      -6.158e-01       2.969e-09           0.000          -0.000           1.000       5.793e-07          0.0087
 378       2.340e-01      -6.158e-01       5.344e-09          -0.000          -0.000           1.000       1.704e-06          0.0152
 379       2.224e-01      -6.158e-01      -3.684e-09           0.000           0.000           1.000       2.730e-06          0.0226
 380       2.048e-01      -6.158e-01       2.155e-08          -0.000          -0.000           1.000       3.597e-06          0.0308
 381       1.825e-01      -6.158e-01       3.597e-08           0.000           0.000           1.000       4.255e-06          0.0404
 382       1.566e-01      -6.158e-01       3.404e-07           0.000           0.000           1.000       4.666e-06          0.0525
 383       1.286e-01      -6.158e-01       9.808e-07           0.000          -0.000           1.000       4.806e-06          0.0684
 384       1.002e-01      -6.158e-01      -1.320e-08          -0.000          -0.000           1.000       4.666e-06          0.0898
 385       7.312e-02      -6.158e-01      -1.718e-06           0.000           0.000           1.000       4.255e-06          0.1274
 386       4.879e-02      -6.158e-01       2.214e-06          -0.000          -0.000           1.000       3.597e-06          0.1901
 387       2.870e-02      -6.158e-01      -2.639e-07          -0.000          -0.000           1.000       2.730e-06          0.3019
 388       1.399e-02      -6.158e-01      -8.033e-07           0.000           0.000           1.000       1.704e-06          0.5292
 389       5.528e-03      -6.158e-01      -4.782e-07           0.000           0.000           1.000       5.793e-07          1.2610
Strip 31
 390       2.391e-01      -6.156e-01       2.970e-09           0.000          -0.000           1.000       7.972e-07          0.0087
 391       2.340e-01      -6.156e-01       5.345e-09          -0.000          -0.000           1.000       2.345e-06          0.0152
 392       2.224e-01      -6.156e-01      -3.685e-09           0.000           0.000           1.000       3.757e-06          0.0227
 393       2.048e-01      -6.156e-01       2.155e-08          -0.000          -0.000           1.000       4.951e-06          0.0310
 394       1.825e-01      -6.156e-01       3.597e-08           0.000           0.000           1.000       5.856e-06          0.0407
 395       1.565e-01      -6.156e-01       3.405e-07           0.000           0.000           1.000       6.422e-06          0.0528
 396       1.286e-01      -6.156e-01       9.810e-07           0.000          -0.000           1.000       6.614e-06          0.0688
 397       1.002e-01      -6.156e-01      -1.320e-08          -0.000          -0.000           1.000       6.422e-06          0.0904
 398       7.308e-02      -6.156e-01      -1.718e-06           0.000           0.000           1.000       5.856e-06          0.1283
 399       4.875e-02      -6.156e-01       2.214e-06          -0.000          -0.000           1.000       4.951e-06          0.1912
 400       2.865e-02      -6.156e-01      -2.640e-07          -0.000          -0.000           1.000       3.757e-06          0.3031
 401       1.394e-02      -6.156e-01      -8.034e-07           0.000           0.000           1.000       2.345e-06          0.5304
 402       5.479e-03      -6.156e-01      -4.783e-07           0.000           0.000           1.000       7.972e-07          1.2685
Strip 32
 403       2.391e-01      -6.153e-01       2.970e-09           0.000          -0.000           1.000       1.002e-06          0.0088
 404       2.340e-01      -6.153e-01       5.346e-09          -0.000          -0.000           1.000       2.947e-06          0.0153
 405       2.224e-01      -6.153e-01      -3.686e-09           0.000           0.000           1.000       4.721e-06          0.0229
 406       2.048e-01      -6.153e-01       2.156e-08          -0.000          -0.000           1.000       6.220e-06          0.0312
 407       1.825e-01      -6.153e-01       3.598e-08           0.000           0.000           1.000       7.358e-06          0.0410
 408       1.565e-01      -6.153e-01       3.405e-07           0.000           0.000           1.000       8.069e-06          0.0532
 409       1.286e-01      -6.153e-01       9.813e-07           0.000          -0.000           1.000       8.310e-06          0.0694
 410       1.002e-01      -6.153e-01      -1.321e-08          -0.000          -0.000           1.000       8.069e-06          0.0911
 411       7.304e-02      -6.153e-01      -1.719e-06           0.000           0.000           1.000       7.358e-06          0.1292
 412       4.870e-02      -6.153e-01       2.215e-06          -0.000          -0.000           1.000       6.220e-06          0.1924
 413       2.859e-02      -6.153e-01      -2.641e-07          -0.000          -0.000           1.000       4.721e-06          0.3046
 414       1.388e-02      -6.153e-01      -8.037e-07           0.000           0.000           1.000       2.947e-06          0.5318
 415       5.414e-03      -6.153e-01      -4.784e-07           0.000           0.000           1.000       1.002e-06          1.2782
Strip 33
 416       2.391e-01      -6.150e-01       2.971e-09           0.000           0.000           1.000       1.189e-06          0.0088
 417       2.340e-01      -6.150e-01       5.348e-09          -0.000          -0.000           1.000       3.498e-06          0.0155
 418       2.224e-01      -6.150e-01      -3.687e-09           0.000           0.000           1.000       5.604e-06          0.0231
 419       2.048e-01      -6.150e-01       2.156e-08          -0.000          -0.000           1.000       7.385e-06          0.0315
 420       1.824e-01      -6.150e-01       3.600e-08           0.000           0.000           1.000       8.736e-06          0.0413
 421       1.565e-01      -6.150e-01       3.407e-07           0.000           0.000           1.000       9.579e-06          0.0537
 422       1.285e-01      -6.150e-01       9.816e-07           0.000          -0.000           1.000       9.866e-06          0.0700
 423       1.001e-01      -6.150e-01      -1.321e-08          -0.000          -0.000           1.000       9.579e-06          0.0920
 424       7.298e-02      -6.150e-01      -1.719e-06           0.000           0.000           1.000       8.736e-06          0.1304
 425       4.864e-02      -6.150e-01       2.216e-06          -0.000          -0.000           1.000       7.385e-06          0.1938
 426       2.852e-02      -6.150e-01      -2.642e-07          -0.000          -0.000           1.000       5.604e-06          0.3063
 427       1.380e-02      -6.150e-01      -8.039e-07           0.000           0.000           1.000       3.498e-06          0.5333
 428       5.335e-03      -6.150e-01      -4.786e-07           0.000           0.000           1.000       1.189e-06          1.2897
Strip 34
 429       2.391e-01      -6.146e-01       2.973e-09           0.000          -0.000           1.000       1.357e-06          0.0089
 430       2.340e-01      -6.146e-01       5.350e-09          -0.000          -0.000           1.000       3.991e-06          0.0156
 431       2.223e-01      -6.146e-01      -3.688e-09           0.000           0.000           1.000       6.393e-06          0.0233
 432       2.048e-01      -6.146e-01       2.157e-08          -0.000          -0.000           1.000       8.424e-06          0.0318
 433       1.824e-01      -6.146e-01       3.601e-08           0.000           0.000           1.000       9.965e-06          0.0417
 434       1.565e-01      -6.146e-01       3.408e-07           0.000           0.000           1.000       1.093e-05          0.0543
 435       1.285e-01      -6.146e-01       9.820e-07           0.000          -0.000           1.000       1.125e-05          0.0707
 436       1.001e-01      -6.146e-01      -1.322e-08          -0.000          -0.000           1.000       1.093e-05          0.0929
 437       7.291e-02      -6.146e-01      -1.720e-06           0.000           0.000           1.000       9.965e-06          0.1317
 438       4.856e-02      -6.146e-01       2.217e-06          -0.000          -0.000           1.000       8.424e-06          0.1955
 439       2.844e-02      -6.146e-01      -2.643e-07          -0.000          -0.000           1.000       6.393e-06          0.3082
 440       1.371e-02      -6.146e-01      -8.043e-07           0.000           0.000           1.000       3.991e-06          0.5353
 441       5.244e-03      -6.146e-01      -4.788e-07           0.000           0.000           1.000       1.357e-06          1.3024
Strip 35
 442       2.391e-01      -6.142e-01       2.974e-09           0.000          -0.000           1.000       1.501e-06          0.0090
 443       2.340e-01      -6.142e-01       5.353e-09          -0.000          -0.000           1.000       4.415e-06          0.0157
 444       2.223e-01      -6.142e-01      -3.690e-09           0.000           0.000           1.000       7.073e-06          0.0235
 445       2.048e-01      -6.142e-01       2.158e-08          -0.000          -0.000           1.000       9.320e-06          0.0321
 446       1.824e-01      -6.142e-01       3.603e-08           0.000           0.000           1.000       1.103e-05          0.0422
 447       1.564e-01      -6.142e-01       3.409e-07           0.000           0.000           1.000       1.209e-05          0.0549
 448       1.284e-01      -6.142e-01       9.825e-07           0.000          -0.000           1.000       1.245e-05          0.0715
 449       1.000e-01      -6.142e-01      -1.322e-08          -0.000          -0.000           1.000       1.209e-05          0.0940
 450       7.284e-02      -6.142e-01      -1.721e-06           0.000           0.000           1.000       1.103e-05          0.1331
 451       4.848e-02      -6.142e-01       2.218e-06          -0.000          -0.000           1.000       9.320e-06          0.1973
 452       2.835e-02      -6.142e-01      -2.644e-07          -0.000          -0.000           1.000       7.073e-06          0.3103
 453       1.362e-02      -6.142e-01      -8.046e-07           0.000           0.000           1.000       4.415e-06          0.5377
 454       5.142e-03      -6.142e-01      -4.790e-07           0.000           0.000           1.000       1.501e-06          1.3157
Strip 36
 455       2.391e-01      -6.138e-01       2.975e-09           0.000          -0.000           1.000       1.620e-06          0.0091
 456       2.340e-01      -6.138e-01       5.355e-09          -0.000          -0.000           1.000       4.765e-06          0.0159
 457       2.223e-01      -6.138e-01      -3.692e-09           0.000           0.000           1.000       7.633e-06          0.0238
 458       2.048e-01      -6.138e-01       2.159e-08          -0.000          -0.000           1.000       1.006e-05          0.0325
 459       1.824e-01      -6.138e-01       3.604e-08           0.000           0.000           1.000       1.190e-05          0.0427
 460       1.564e-01      -6.138e-01       3.411e-07           0.000           0.000           1.000       1.305e-05          0.0555
 461       1.284e-01      -6.138e-01       9.829e-07           0.000          -0.000           1.000       1.344e-05          0.0724
 462       9.995e-02      -6.138e-01      -1.323e-08          -0.000          -0.000           1.000       1.305e-05          0.0952
 463       7.276e-02      -6.138e-01      -1.722e-06           0.000           0.000           1.000       1.190e-05          0.1347
 464       4.839e-02      -6.138e-01       2.219e-06          -0.000          -0.000           1.000       1.006e-05          0.1992
 465       2.825e-02      -6.138e-01      -2.645e-07          -0.000          -0.000           1.000       7.633e-06          0.3126
 466       1.351e-02      -6.138e-01      -8.050e-07           0.000           0.000           1.000       4.765e-06          0.5406
 467       5.030e-03      -6.138e-01      -4.792e-07           0.000           0.000           1.000       1.620e-06          1.3291
Strip 37
 468       2.391e-01      -6.133e-01       2.977e-09           0.000          -0.000           1.000       1.711e-06          0.0092
 469       2.340e-01      -6.133e-01       5.358e-09          -0.000          -0.000           1.000       5.033e-06          0.0161
 470       2.223e-01      -6.133e-01      -3.694e-09           0.000           0.000           1.000       8.063e-06          0.0241
 471       2.048e-01      -6.133e-01       2.160e-08          -0.000          -0.000           1.000       1.062e-05          0.0329
 472       1.823e-01      -6.133e-01       3.606e-08           0.000           0.000           1.000       1.257e-05          0.0432
 473       1.563e-01      -6.133e-01       3.413e-07           0.000           0.000           1.000       1.378e-05          0.0562
 474       1.283e-01      -6.133e-01       9.834e-07           0.000          -0.000           1.000       1.419e-05          0.0733
 475       9.988e-02      -6.133e-01      -1.323e-08          -0.000          -0.000           1.000       1.378e-05          0.0964
 476       7.268e-02      -6.133e-01      -1.722e-06           0.000           0.000           1.000       1.257e-05          0.1363
 477       4.829e-02      -6.133e-01       2.220e-06          -0.000          -0.000           1.000       1.062e-05          0.2013
 478       2.814e-02      -6.133e-01      -2.646e-07          -0.000          -0.000           1.000       8.063e-06          0.3150
 479       1.339e-02      -6.133e-01      -8.054e-07           0.000           0.000           1.000       5.033e-06          0.5440
 480       4.911e-03      -6.133e-01      -4.795e-07           0.000           0.000           1.000       1.711e-06          1.3422
Strip 38
 481       2.391e-01      -6.128e-01       2.978e-09           0.000          -0.000           1.000       1.773e-06          0.0092
 482       2.340e-01      -6.128e-01       5.361e-09          -0.000          -0.000           1.000       5.216e-06          0.0162
[...]
1281       1.029e-01       6.231e-01      -1.295e-08          -0.000           0.000           1.000       1.731e-05          0.0702
1282       7.622e-02       6.231e-01      -1.686e-06           0.000          -0.000           1.000       1.578e-05          0.0999
1283       5.236e-02       6.231e-01       2.173e-06          -0.000           0.000           1.000       1.334e-05          0.1535
1284       3.263e-02       6.231e-01      -2.590e-07          -0.000           0.000           1.000       1.013e-05          0.2537
1285       1.820e-02       6.231e-01      -7.883e-07           0.000          -0.000           1.000       6.321e-06          0.4622
1286       9.895e-03       6.231e-01      -4.693e-07           0.000          -0.000           1.000       2.149e-06          1.1777
Strip 100
1287       2.392e-01       6.237e-01       2.909e-09           0.000          -0.000           1.000       1.348e-06          0.0071
1288       2.341e-01       6.237e-01       5.236e-09          -0.000           0.000           1.000       3.967e-06          0.0122
1289       2.227e-01       6.237e-01      -3.609e-09           0.000          -0.000           1.000       6.355e-06          0.0179
1290       2.056e-01       6.237e-01       2.111e-08          -0.000           0.000           1.000       8.373e-06          0.0242
1291       1.836e-01       6.237e-01       3.524e-08           0.000          -0.000           1.000       9.905e-06          0.0315
1292       1.583e-01       6.237e-01       3.335e-07           0.000          -0.000           1.000       1.086e-05          0.0407
1293       1.309e-01       6.237e-01       9.610e-07           0.000           0.000           1.000       1.119e-05          0.0527
1294       1.031e-01       6.237e-01      -1.293e-08          -0.000           0.000           1.000       1.086e-05          0.0684
1295       7.650e-02       6.237e-01      -1.683e-06           0.000          -0.000           1.000       9.905e-06          0.0973
1296       5.267e-02       6.237e-01       2.169e-06          -0.000           0.000           1.000       8.373e-06          0.1500
1297       3.298e-02       6.237e-01      -2.586e-07          -0.000           0.000           1.000       6.355e-06          0.2490
1298       1.857e-02       6.237e-01      -7.870e-07           0.000          -0.000           1.000       3.967e-06          0.4544
1299       1.028e-02       6.237e-01      -4.685e-07           0.000          -0.000           1.000       1.348e-06          1.1721
Strip 101
1300       2.392e-01       6.239e-01       2.906e-09           0.000           0.000           1.000       4.595e-07          0.0070
1301       2.341e-01       6.239e-01       5.231e-09          -0.000           0.000           1.000       1.352e-06          0.0120
1302       2.227e-01       6.239e-01      -3.606e-09           0.000          -0.000           1.000       2.166e-06          0.0176
1303       2.056e-01       6.239e-01       2.109e-08          -0.000           0.000           1.000       2.854e-06          0.0237
1304       1.837e-01       6.239e-01       3.521e-08           0.000          -0.000           1.000       3.376e-06          0.0309
1305       1.583e-01       6.239e-01       3.332e-07           0.000          -0.000           1.000       3.702e-06          0.0399
1306       1.310e-01       6.239e-01       9.601e-07           0.000           0.000           1.000       3.812e-06          0.0516
1307       1.032e-01       6.239e-01      -1.292e-08          -0.000           0.000           1.000       3.702e-06          0.0670
1308       7.664e-02       6.239e-01      -1.682e-06           0.000          -0.000           1.000       3.376e-06          0.0951
1309       5.283e-02       6.239e-01       2.167e-06          -0.000           0.000           1.000       2.854e-06          0.1471
1310       3.316e-02       6.239e-01      -2.584e-07          -0.000           0.000           1.000       2.166e-06          0.2453
1311       1.876e-02       6.239e-01      -7.863e-07           0.000          -0.000           1.000       1.352e-06          0.4482
1312       1.048e-02       6.239e-01      -4.681e-07           0.000          -0.000           1.000       4.595e-07          1.1659
Strip 102
1313       2.392e-01       6.250e-01       2.896e-09           0.000           0.000           1.000       6.720e-06          0.0069
1314       2.342e-01       6.250e-01       5.213e-09          -0.000           0.000           1.000       1.977e-05          0.0118
1315       2.228e-01       6.250e-01      -3.594e-09           0.000          -0.000           1.000       3.167e-05          0.0172
1316       2.057e-01       6.250e-01       2.102e-08          -0.000           0.000           1.000       4.173e-05          0.0232
1317       1.839e-01       6.250e-01       3.509e-08           0.000          -0.000           1.000       4.936e-05          0.0302
1318       1.586e-01       6.250e-01       3.320e-07           0.000          -0.000           1.000       5.413e-05          0.0390
1319       1.313e-01       6.250e-01       9.568e-07           0.000           0.000           1.000       5.575e-05          0.0504
1320       1.037e-01       6.250e-01      -1.288e-08          -0.000           0.000           1.000       5.413e-05          0.0652
1321       7.720e-02       6.250e-01      -1.676e-06           0.000          -0.000           1.000       4.936e-05          0.0927
1322       5.348e-02       6.250e-01       2.160e-06          -0.000           0.000           1.000       4.173e-05          0.1438
1323       3.387e-02       6.250e-01      -2.575e-07          -0.000           0.000           1.000       3.167e-05          0.2411
1324       1.952e-02       6.250e-01      -7.836e-07           0.000          -0.000           1.000       1.977e-05          0.4414
1325       1.127e-02       6.250e-01      -4.665e-07           0.000          -0.000           1.000       6.720e-06          1.1601
Strip 103
1326       2.392e-01       6.267e-01       2.880e-09           0.000           0.000           1.000       4.892e-06          0.0065
1327       2.342e-01       6.267e-01       5.184e-09          -0.000           0.000           1.000       1.439e-05          0.0111
1328       2.229e-01       6.267e-01      -3.574e-09           0.000          -0.000           1.000       2.305e-05          0.0162
1329       2.059e-01       6.267e-01       2.090e-08          -0.000           0.000           1.000       3.038e-05          0.0217
1330       1.842e-01       6.267e-01       3.489e-08           0.000          -0.000           1.000       3.593e-05          0.0283
1331       1.591e-01       6.267e-01       3.302e-07           0.000          -0.000           1.000       3.940e-05          0.0364
1332       1.320e-01       6.267e-01       9.514e-07           0.000           0.000           1.000       4.058e-05          0.0470
1333       1.044e-01       6.267e-01      -1.280e-08          -0.000           0.000           1.000       3.940e-05          0.0607
1334       7.812e-02       6.267e-01      -1.666e-06           0.000          -0.000           1.000       3.593e-05          0.0861
1335       5.452e-02       6.267e-01       2.148e-06          -0.000           0.000           1.000       3.038e-05          0.1348
1336       3.503e-02       6.267e-01      -2.560e-07          -0.000           0.000           1.000       2.305e-05          0.2309
1337       2.076e-02       6.267e-01      -7.792e-07           0.000          -0.000           1.000       1.439e-05          0.4267
1338       1.255e-02       6.267e-01      -4.639e-07           0.000          -0.000           1.000       4.892e-06          1.1132
Strip 104
1339       2.392e-01       6.277e-01       2.871e-09           0.000           0.000           1.000       1.785e-06          0.0063
1340       2.342e-01       6.277e-01       5.167e-09          -0.000           0.000           1.000       5.250e-06          0.0106
1341       2.229e-01       6.277e-01      -3.562e-09           0.000          -0.000           1.000       8.410e-06          0.0154
1342       2.060e-01       6.277e-01       2.083e-08          -0.000           0.000           1.000       1.108e-05          0.0206
1343       1.844e-01       6.277e-01       3.477e-08           0.000          -0.000           1.000       1.311e-05          0.0268
1344       1.593e-01       6.277e-01       3.291e-07           0.000          -0.000           1.000       1.438e-05          0.0345
1345       1.323e-01       6.277e-01       9.483e-07           0.000           0.000           1.000       1.481e-05          0.0444
1346       1.049e-01       6.277e-01      -1.276e-08          -0.000           0.000           1.000       1.438e-05          0.0572
1347       7.865e-02       6.277e-01      -1.661e-06           0.000          -0.000           1.000       1.311e-05          0.0808
1348       5.513e-02       6.277e-01       2.141e-06          -0.000           0.000           1.000       1.108e-05          0.1275
1349       3.570e-02       6.277e-01      -2.552e-07          -0.000           0.000           1.000       8.410e-06          0.2222
1350       2.148e-02       6.277e-01      -7.767e-07           0.000          -0.000           1.000       5.250e-06          0.4201
1351       1.330e-02       6.277e-01      -4.624e-07           0.000          -0.000           1.000       1.785e-06          1.0589
Strip 105
1352       2.392e-01       6.294e-01       2.846e-09           0.000           0.000           1.000       9.338e-06          0.0060
1353       2.343e-01       6.294e-01       5.122e-09          -0.000           0.000           1.000       2.747e-05          0.0100
1354       2.231e-01       6.294e-01      -3.531e-09           0.000          -0.000           1.000       4.401e-05          0.0145
1355       2.063e-01       6.294e-01       2.065e-08          -0.000           0.000           1.000       5.799e-05          0.0194
1356       1.849e-01       6.294e-01       3.448e-08           0.000          -0.000           1.000       6.860e-05          0.0251
1357       1.600e-01       6.294e-01       3.263e-07           0.000          -0.000           1.000       7.522e-05          0.0323
1358       1.332e-01       6.294e-01       9.402e-07           0.000           0.000           1.000       7.747e-05          0.0415
1359       1.060e-01       6.294e-01      -1.265e-08          -0.000           0.000           1.000       7.522e-05          0.0532
1360       8.003e-02       6.294e-01      -1.647e-06           0.000          -0.000           1.000       6.860e-05          0.0750
1361       5.672e-02       6.294e-01       2.122e-06          -0.000           0.000           1.000       5.799e-05          0.1192
1362       3.745e-02       6.294e-01      -2.530e-07          -0.000           0.000           1.000       4.401e-05          0.2120
1363       2.335e-02       6.294e-01      -7.700e-07           0.000          -0.000           1.000       2.747e-05          0.4072
1364       1.524e-02       6.294e-01      -4.584e-07           0.000          -0.000           1.000       9.338e-06          1.0274
Strip 106
1365       2.392e-01       6.314e-01       2.815e-09           0.000           0.000           1.000       3.825e-06          0.0055
1366       2.343e-01       6.314e-01       5.066e-09          -0.000           0.000           1.000       1.125e-05          0.0091
1367       2.233e-01       6.314e-01      -3.492e-09           0.000          -0.000           1.000       1.803e-05          0.0131
1368       2.067e-01       6.314e-01       2.043e-08          -0.000           0.000           1.000       2.375e-05          0.0174
1369       1.855e-01       6.314e-01       3.410e-08           0.000          -0.000           1.000       2.810e-05          0.0226
1370       1.609e-01       6.314e-01       3.227e-07           0.000          -0.000           1.000       3.081e-05          0.0290
1371       1.344e-01       6.314e-01       9.299e-07           0.000           0.000           1.000       3.174e-05          0.0372
1372       1.075e-01       6.314e-01      -1.251e-08          -0.000           0.000           1.000       3.081e-05          0.0473
1373       8.179e-02       6.314e-01      -1.629e-06           0.000          -0.000           1.000       2.810e-05          0.0662
1374       5.873e-02       6.314e-01       2.099e-06          -0.000           0.000           1.000       2.375e-05          0.1055
1375       3.968e-02       6.314e-01      -2.502e-07          -0.000           0.000           1.000       1.803e-05          0.1951
1376       2.574e-02       6.314e-01      -7.615e-07           0.000          -0.000           1.000       1.125e-05          0.3803
1377       1.772e-02       6.314e-01      -4.534e-07           0.000          -0.000           1.000       3.825e-06          0.9862
Strip 107
1378       2.392e-01       6.334e-01       2.775e-09           0.000           0.000           1.000       9.103e-06          0.0050
1379       2.344e-01       6.334e-01       4.994e-09          -0.000           0.000           1.000       2.678e-05          0.0081
1380       2.235e-01       6.334e-01      -3.443e-09           0.000          -0.000           1.000       4.290e-05          0.0116
1381       2.071e-01       6.334e-01       2.014e-08          -0.000           0.000           1.000       5.653e-05          0.0154
1382       1.862e-01       6.334e-01       3.361e-08           0.000          -0.000           1.000       6.687e-05          0.0199
1383       1.620e-01       6.334e-01       3.181e-07           0.000          -0.000           1.000       7.333e-05          0.0255
1384       1.359e-01       6.334e-01       9.166e-07           0.000           0.000           1.000       7.552e-05          0.0325
1385       1.094e-01       6.334e-01      -1.233e-08          -0.000           0.000           1.000       7.333e-05          0.0411
1386       8.405e-02       6.334e-01      -1.605e-06           0.000          -0.000           1.000       6.687e-05          0.0570
1387       6.132e-02       6.334e-01       2.069e-06          -0.000           0.000           1.000       5.653e-05          0.0904
1388       4.254e-02       6.334e-01      -2.466e-07          -0.000           0.000           1.000       4.290e-05          0.1756
1389       2.879e-02       6.334e-01      -7.507e-07           0.000          -0.000           1.000       2.678e-05          0.3512
1390       2.089e-02       6.334e-01      -4.469e-07           0.000          -0.000           1.000       9.103e-06          0.9461
Strip 108
1391       2.392e-01       6.354e-01       2.731e-09           0.000           0.000           1.000       3.711e-06          0.0043
1392       2.345e-01       6.354e-01       4.915e-09          -0.000           0.000           1.000       1.092e-05          0.0069
1393       2.238e-01       6.354e-01      -3.388e-09           0.000          -0.000           1.000       1.749e-05          0.0098
1394       2.077e-01       6.354e-01       1.982e-08          -0.000           0.000           1.000       2.305e-05          0.0130
1395       1.871e-01       6.354e-01       3.308e-08           0.000          -0.000           1.000       2.726e-05          0.0167
1396       1.633e-01       6.354e-01       3.131e-07           0.000          -0.000           1.000       2.989e-05          0.0213
1397       1.376e-01       6.354e-01       9.021e-07           0.000           0.000           1.000       3.079e-05          0.0271
1398       1.115e-01       6.354e-01      -1.214e-08          -0.000           0.000           1.000       2.989e-05          0.0338
1399       8.651e-02       6.354e-01      -1.580e-06           0.000          -0.000           1.000       2.726e-05          0.0462
1400       6.414e-02       6.354e-01       2.036e-06          -0.000           0.000           1.000       2.305e-05          0.0726
1401       4.566e-02       6.354e-01      -2.427e-07          -0.000           0.000           1.000       1.749e-05          0.1562
1402       3.213e-02       6.354e-01      -7.388e-07           0.000          -0.000           1.000       1.092e-05          0.3069
1403       2.435e-02       6.354e-01      -4.398e-07           0.000          -0.000           1.000       3.711e-06          0.8568
Strip 109
1404       2.392e-01       6.374e-01       2.643e-09           0.000           0.000           1.000       8.671e-06          0.0036
1405       2.347e-01       6.374e-01       4.756e-09          -0.000           0.000           1.000       2.551e-05          0.0056
1406       2.243e-01       6.374e-01      -3.279e-09           0.000          -0.000           1.000       4.086e-05          0.0079
1407       2.087e-01       6.374e-01       1.918e-08          -0.000           0.000           1.000       5.384e-05          0.0104
1408       1.888e-01       6.374e-01       3.201e-08           0.000          -0.000           1.000       6.369e-05          0.0133
1409       1.657e-01       6.374e-01       3.030e-07           0.000          -0.000           1.000       6.984e-05          0.0168
1410       1.409e-01       6.374e-01       8.730e-07           0.000           0.000           1.000       7.193e-05          0.0211
1411       1.156e-01       6.374e-01      -1.175e-08          -0.000           0.000           1.000       6.984e-05          0.0258
1412       9.147e-02       6.374e-01      -1.529e-06           0.000          -0.001           1.000       6.369e-05          0.0341
1413       6.982e-02       6.374e-01       1.971e-06          -0.000           0.001           1.000       5.384e-05          0.0498
1414       5.193e-02       6.374e-01      -2.349e-07          -0.000           0.000           1.000       4.086e-05          0.1144
1415       3.884e-02       6.374e-01      -7.150e-07           0.000          -0.000           1.000       2.551e-05          0.3067
1416       3.131e-02       6.374e-01      -4.256e-07           0.000          -0.001           1.000       8.671e-06          0.7415
Strip 110
1417       2.393e-01       6.394e-01       2.536e-09           0.000           0.000           1.000       3.447e-06          0.0023
1418       2.349e-01       6.394e-01       4.565e-09          -0.000           0.000           1.000       1.014e-05          0.0035
1419       2.249e-01       6.394e-01      -3.147e-09           0.000          -0.000           1.000       1.624e-05          0.0048
1420       2.100e-01       6.394e-01       1.841e-08          -0.000           0.000           1.000       2.140e-05          0.0063
1421       1.909e-01       6.394e-01       3.072e-08           0.000          -0.000           1.000       2.532e-05          0.0081
1422       1.687e-01       6.394e-01       2.907e-07           0.000          -0.000           1.000       2.776e-05          0.0102
1423       1.449e-01       6.394e-01       8.378e-07           0.000           0.000           1.000       2.860e-05          0.0126
1424       1.206e-01       6.394e-01      -1.127e-08          -0.000           0.000           1.000       2.776e-05          0.0151
1425       9.745e-02       6.394e-01      -1.467e-06           0.000          -0.001           1.000       2.532e-05          0.0194
1426       7.667e-02       6.394e-01       1.891e-06          -0.000           0.001           1.000       2.140e-05          0.0268
1427       5.951e-02       6.394e-01      -2.255e-07          -0.000           0.000           1.000       1.624e-05          0.0488
1428       4.694e-02       6.394e-01      -6.862e-07           0.000          -0.000           1.000       1.014e-05          0.1528
1429       3.972e-02       6.394e-01      -4.085e-07           0.000          -0.001           1.000       3.447e-06          0.7475










