xflr5 v6.50

Plane Name
T1-44.0 m/s-VLM1
QInf  =   44.000000 m/s
Alpha =   -2.500000
Beta  =    0.000°
Phi   =    0.000°
Ctrl  =    0.000
CL    =   -0.186751
Cy    =    0.000000
Cd    =    0.008879     ICd   =    0.001888     PCd   =    0.006991
Cl   = 1.93141e-16
Cm   =   0.0451027
ICn   =   -0.000000     PCn   =    0.000000 
XCP   =    0.057796     YCP   =    0.000000     ZCP   =   -0.000000  
XNP   =    0.000000
Bending =   -5.957134

Main Wing
  y-span        Chord      Ai         Cl        PCd          ICd        CmGeom    CmAirf@chord/4    XTrtop    XTrBot      XCP       BM
   -0.6394     0.2025     0.976   -0.022637    0.007384    0.000386    0.007828   -0.002162     0.6836    0.6739    0.1545    0.0000
   -0.6374     0.2110     0.969   -0.036175    0.007262    0.000612    0.011132   -0.003008     0.6839    0.6683    0.1668   -0.0000
   -0.6354     0.2180     0.963   -0.043947    0.007176    0.000738    0.012318   -0.003207     0.6835    0.6645    0.1770   -0.0001
   -0.6334     0.2215     0.957   -0.051109    0.007134    0.000853    0.013685   -0.003458     0.6840    0.6619    0.1823   -0.0002
   -0.6314     0.2247     0.951   -0.056699    0.007098    0.000941    0.014567   -0.003557     0.6842    0.6598    0.1873   -0.0003
   -0.6294     0.2272     0.946   -0.061898    0.007070    0.001022    0.015408   -0.003639     0.6846    0.6580    0.1912   -0.0005
   -0.6277     0.2292     0.941   -0.065135    0.007048    0.001070    0.015782   -0.003660     0.6848    0.6568    0.1938   -0.0008
   -0.6267     0.2300     0.938   -0.068126    0.007040    0.001116    0.016398   -0.003701     0.6852    0.6560    0.1957   -0.0009
   -0.6250     0.2313     0.934   -0.071832    0.007025    0.001171    0.017032   -0.003732     0.6857    0.6549    0.1980   -0.0013
   -0.6239     0.2321     0.931   -0.073183    0.007016    0.001189    0.017155   -0.003727     0.6858    0.6544    0.1991   -0.0015
   -0.6237     0.2323     0.931   -0.074329    0.007014    0.001207    0.017419   -0.003728     0.6860    0.6541    0.1998   -0.0016
   -0.6231     0.2326     0.929   -0.075759    0.007009    0.001229    0.017696   -0.003726     0.6862    0.6537    0.2008   -0.0017
   -0.6224     0.2332     0.927   -0.077415    0.007003    0.001253    0.017982   -0.003718     0.6864    0.6532    0.2020   -0.0019
   -0.6215     0.2339     0.925   -0.079225    0.006995    0.001279    0.018268   -0.003702     0.6866    0.6527    0.2033   -0.0021
   -0.6205     0.2346     0.922   -0.081042    0.006986    0.001305    0.018525   -0.003680     0.6868    0.6521    0.2046   -0.0024
   -0.6200     0.2350     0.921   -0.081587    0.006981    0.001292    0.018507   -0.003672     0.6868    0.6519    0.2049   -0.0026
   -0.6199     0.2350     0.921   -0.081892    0.006981    0.001317    0.018609   -0.003670     0.6868    0.6518    0.2052   -0.0026
   -0.6198     0.2351     0.921   -0.082365    0.006980    0.001324    0.018717   -0.003667     0.6869    0.6517    0.2055   -0.0026
   -0.6196     0.2352     0.920   -0.082914    0.006979    0.001332    0.018833   -0.003665     0.6870    0.6516    0.2058   -0.0027
   -0.6193     0.2353     0.919   -0.083540    0.006977    0.001341    0.018959   -0.003662     0.6871    0.6514    0.2062   -0.0028
   -0.6190     0.2355     0.919   -0.084246    0.006975    0.001351    0.019094   -0.003658     0.6873    0.6512    0.2066   -0.0029
   -0.6186     0.2357     0.918   -0.085025    0.006973    0.001362    0.019240   -0.003654     0.6874    0.6510    0.2070   -0.0030
   -0.6182     0.2359     0.917   -0.085869    0.006970    0.001374    0.019395   -0.003649     0.6875    0.6508    0.2075   -0.0031
   -0.6178     0.2361     0.915   -0.086766    0.006967    0.001387    0.019555   -0.003643     0.6876    0.6505    0.2080   -0.0033
   -0.6173     0.2364     0.914   -0.087700    0.006965    0.001400    0.019720   -0.003637     0.6878    0.6503    0.2085   -0.0035
   -0.6168     0.2366     0.913   -0.088653    0.006961    0.001413    0.019883   -0.003630     0.6879    0.6500    0.2091   -0.0037
   -0.6163     0.2369     0.912   -0.089586    0.006958    0.001426    0.020037   -0.003623     0.6881    0.6498    0.2096   -0.0039
   -0.6160     0.2370     0.911   -0.089960    0.006957    0.001416    0.020073   -0.003621     0.6881    0.6496    0.2097   -0.0040
   -0.6159     0.2370     0.911   -0.090214    0.006956    0.001435    0.020144   -0.003621     0.6882    0.6496    0.2099   -0.0040
   -0.6158     0.2371     0.910   -0.090587    0.006956    0.001440    0.020230   -0.003621     0.6882    0.6495    0.2100   -0.0041
   -0.6156     0.2371     0.910   -0.091051    0.006955    0.001446    0.020332   -0.003621     0.6883    0.6494    0.2102   -0.0042
   -0.6153     0.2372     0.909   -0.091613    0.006954    0.001454    0.020454   -0.003622     0.6884    0.6493    0.2105   -0.0043
   -0.6150     0.2372     0.909   -0.092268    0.006953    0.001463    0.020593   -0.003622     0.6886    0.6491    0.2107   -0.0044
   -0.6146     0.2373     0.908   -0.093012    0.006952    0.001474    0.020751   -0.003623     0.6887    0.6490    0.2110   -0.0046
   -0.6142     0.2374     0.907   -0.093835    0.006951    0.001485    0.020923   -0.003624     0.6889    0.6488    0.2114   -0.0048
   -0.6138     0.2376     0.905   -0.094725    0.006949    0.001497    0.021109   -0.003624     0.6890    0.6486    0.2117   -0.0050
   -0.6133     0.2377     0.904   -0.095669    0.006948    0.001510    0.021306   -0.003624     0.6892    0.6483    0.2121   -0.0052
   -0.6128     0.2378     0.903   -0.096653    0.006946    0.001523    0.021511   -0.003623     0.6894    0.6481    0.2125   -0.0054
   -0.6123     0.2379     0.902   -0.097654    0.006945    0.001537    0.021718   -0.003621     0.6896    0.6479    0.2129   -0.0057
   -0.6119     0.2380     0.901   -0.098330    0.006943    0.001546    0.021859   -0.003619     0.6897    0.6477    0.2132   -0.0059
   -0.6117     0.2381     0.900   -0.098972    0.006943    0.001555    0.022000   -0.003617     0.6899    0.6476    0.2134   -0.0060
   -0.6111     0.2382     0.899   -0.100000    0.006941    0.001569    0.022214   -0.003614     0.6900    0.6473    0.2139   -0.0063
   -0.6104     0.2384     0.897   -0.101388    0.006938    0.001588    0.022499   -0.003607     0.6903    0.6470    0.2144   -0.0067
   -0.6095     0.2386     0.895   -0.103077    0.006936    0.001610    0.022845   -0.003597     0.6906    0.6466    0.2151   -0.0072
   -0.6085     0.2389     0.892   -0.104980    0.006933    0.001635    0.023235   -0.003584     0.6910    0.6462    0.2159   -0.0078
   -0.6077     0.2391     0.890   -0.106706    0.006931    0.001659    0.023599   -0.003570     0.6914    0.6458    0.2165   -0.0083
   -0.6067     0.2393     0.888   -0.108644    0.006929    0.001684    0.023993   -0.003554     0.6917    0.6453    0.2173   -0.0089
   -0.6050     0.2397     0.884   -0.111863    0.006925    0.001725    0.024632   -0.003527     0.6924    0.6446    0.2185   -0.0101
   -0.6037     0.2400     0.880   -0.114625    0.006923    0.001762    0.025209   -0.003522     0.6929    0.6440    0.2193   -0.0111
   -0.6027     0.2400     0.878   -0.117456    0.006925    0.001800    0.025908   -0.003531     0.6936    0.6434    0.2199   -0.0118
   -0.6010     0.2400     0.873   -0.122404    0.006929    0.001866    0.027117   -0.003559     0.6948    0.6424    0.2209   -0.0133
   -0.5772     0.2400     0.831   -0.132803    0.006937    0.001926    0.029657   -0.003619     0.6973    0.6403    0.2227   -0.0345
   -0.4893     0.2400     0.704   -0.170570    0.006967    0.002097    0.039994   -0.002724     0.7065    0.6325    0.2340   -0.2643
   -0.3269     0.2400     0.562   -0.199862    0.006995    0.001960    0.048550   -0.001491     0.7134    0.6243    0.2425   -1.7142
   -0.1148     0.2400     0.485   -0.212976    0.007007    0.001801    0.052357   -0.000963     0.7165    0.6205    0.2455   -5.9571
    0.1148     0.2400     0.485   -0.212976    0.007007    0.001801    0.052357   -0.000963     0.7165    0.6205    0.2455   -5.9571
    0.3269     0.2400     0.562   -0.199862    0.006995    0.001960    0.048550   -0.001491     0.7134    0.6243    0.2425   -1.7142
    0.4893     0.2400     0.704   -0.170570    0.006967    0.002097    0.039994   -0.002724     0.7065    0.6325    0.2340   -0.2643
    0.5772     0.2400     0.831   -0.132803    0.006937    0.001926    0.029657   -0.003619     0.6973    0.6403    0.2227   -0.0345
    0.6010     0.2400     0.873   -0.122404    0.006929    0.001866    0.027117   -0.003559     0.6948    0.6424    0.2209   -0.0133
    0.6027     0.2400     0.878   -0.117456    0.006925    0.001800    0.025908   -0.003531     0.6936    0.6434    0.2199   -0.0118
    0.6037     0.2400     0.880   -0.114625    0.006923    0.001762    0.025209   -0.003522     0.6929    0.6440    0.2193   -0.0111
    0.6050     0.2397     0.884   -0.111863    0.006925    0.001725    0.024632   -0.003527     0.6924    0.6446    0.2185   -0.0101
    0.6067     0.2393     0.888   -0.108644    0.006929    0.001684    0.023993   -0.003554     0.6917    0.6453    0.2173   -0.0089
    0.6077     0.2391     0.890   -0.106706    0.006931    0.001659    0.023599   -0.003570     0.6914    0.6458    0.2165   -0.0083
    0.6085     0.2389     0.892   -0.104980    0.006933    0.001635    0.023235   -0.003584     0.6910    0.6462    0.2159   -0.0078
    0.6095     0.2386     0.895   -0.103077    0.006936    0.001610    0.022845   -0.003597     0.6906    0.6466    0.2151   -0.0072
    0.6104     0.2384     0.897   -0.101388    0.006938    0.001588    0.022499   -0.003607     0.6903    0.6470    0.2144   -0.0067
    0.6111     0.2382     0.899   -0.100000    0.006941    0.001569    0.022214   -0.003614     0.6900    0.6473    0.2139   -0.0063
    0.6117     0.2381     0.900   -0.098972    0.006943    0.001555    0.022000   -0.003617     0.6899    0.6476    0.2134   -0.0060
    0.6119     0.2380     0.901   -0.098330    0.006943    0.001546    0.021859   -0.003619     0.6897    0.6477    0.2132   -0.0059
    0.6123     0.2379     0.902   -0.097654    0.006945    0.001537    0.021718   -0.003621     0.6896    0.6479    0.2129   -0.0057
    0.6128     0.2378     0.903   -0.096653    0.006946    0.001523    0.021511   -0.003623     0.6894    0.6481    0.2125   -0.0054
    0.6133     0.2377     0.904   -0.095669    0.006948    0.001510    0.021306   -0.003624     0.6892    0.6483    0.2121   -0.0052
    0.6138     0.2376     0.905   -0.094725    0.006949    0.001497    0.021109   -0.003624     0.6890    0.6486    0.2117   -0.0050
    0.6142     0.2374     0.907   -0.093835    0.006951    0.001485    0.020923   -0.003624     0.6889    0.6488    0.2114   -0.0048
    0.6146     0.2373     0.908   -0.093012    0.006952    0.001474    0.020751   -0.003623     0.6887    0.6490    0.2110   -0.0046
    0.6150     0.2372     0.909   -0.092268    0.006953    0.001463    0.020593   -0.003622     0.6886    0.6491    0.2107   -0.0044
    0.6153     0.2372     0.909   -0.091613    0.006954    0.001454    0.020454   -0.003622     0.6884    0.6493    0.2105   -0.0043
    0.6156     0.2371     0.910   -0.091051    0.006955    0.001446    0.020332   -0.003621     0.6883    0.6494    0.2102   -0.0042
    0.6158     0.2371     0.910   -0.090587    0.006956    0.001440    0.020230   -0.003621     0.6882    0.6495    0.2100   -0.0041
    0.6159     0.2370     0.911   -0.090214    0.006956    0.001435    0.020144   -0.003621     0.6882    0.6496    0.2099   -0.0040
    0.6160     0.2370     0.911   -0.089960    0.006957    0.001416    0.020073   -0.003621     0.6881    0.6496    0.2097   -0.0040
    0.6163     0.2369     0.912   -0.089586    0.006958    0.001426    0.020037   -0.003623     0.6881    0.6498    0.2096   -0.0039
    0.6168     0.2366     0.913   -0.088653    0.006961    0.001413    0.019883   -0.003630     0.6879    0.6500    0.2091   -0.0037
    0.6173     0.2364     0.914   -0.087700    0.006965    0.001400    0.019720   -0.003637     0.6878    0.6503    0.2085   -0.0035
    0.6178     0.2361     0.915   -0.086766    0.006967    0.001387    0.019555   -0.003643     0.6876    0.6505    0.2080   -0.0033
    0.6182     0.2359     0.917   -0.085869    0.006970    0.001374    0.019395   -0.003649     0.6875    0.6508    0.2075   -0.0031
    0.6186     0.2357     0.918   -0.085025    0.006973    0.001362    0.019240   -0.003654     0.6874    0.6510    0.2070   -0.0030
    0.6190     0.2355     0.919   -0.084246    0.006975    0.001351    0.019094   -0.003658     0.6873    0.6512    0.2066   -0.0029
    0.6193     0.2353     0.919   -0.083540    0.006977    0.001341    0.018959   -0.003662     0.6871    0.6514    0.2062   -0.0028
    0.6196     0.2352     0.920   -0.082914    0.006979    0.001332    0.018833   -0.003665     0.6870    0.6516    0.2058   -0.0027
    0.6198     0.2351     0.921   -0.082365    0.006980    0.001324    0.018717   -0.003667     0.6869    0.6517    0.2055   -0.0026
    0.6199     0.2350     0.921   -0.081892    0.006981    0.001317    0.018609   -0.003670     0.6868    0.6518    0.2052   -0.0026
    0.6200     0.2350     0.921   -0.081587    0.006981    0.001292    0.018507   -0.003672     0.6868    0.6519    0.2049   -0.0026
    0.6205     0.2346     0.922   -0.081042    0.006986    0.001305    0.018525   -0.003680     0.6868    0.6521    0.2046   -0.0024
    0.6215     0.2339     0.925   -0.079225    0.006995    0.001279    0.018268   -0.003702     0.6866    0.6527    0.2033   -0.0021
    0.6224     0.2332     0.927   -0.077415    0.007003    0.001253    0.017982   -0.003718     0.6864    0.6532    0.2020   -0.0019
    0.6231     0.2326     0.929   -0.075759    0.007009    0.001229    0.017696   -0.003726     0.6862    0.6537    0.2008   -0.0017
    0.6237     0.2323     0.931   -0.074329    0.007014    0.001207    0.017419   -0.003728     0.6860    0.6541    0.1998   -0.0016
    0.6239     0.2321     0.931   -0.073183    0.007016    0.001189    0.017155   -0.003727     0.6858    0.6544    0.1991   -0.0015
    0.6250     0.2313     0.934   -0.071832    0.007025    0.001171    0.017032   -0.003732     0.6857    0.6549    0.1980   -0.0013
    0.6267     0.2300     0.938   -0.068126    0.007040    0.001116    0.016398   -0.003701     0.6852    0.6560    0.1957   -0.0009
    0.6277     0.2292     0.941   -0.065135    0.007048    0.001070    0.015782   -0.003660     0.6848    0.6568    0.1938   -0.0008
    0.6294     0.2272     0.946   -0.061898    0.007070    0.001022    0.015408   -0.003639     0.6846    0.6580    0.1912   -0.0005
    0.6314     0.2247     0.951   -0.056699    0.007098    0.000941    0.014567   -0.003557     0.6842    0.6598    0.1873   -0.0003
    0.6334     0.2215     0.957   -0.051109    0.007134    0.000853    0.013685   -0.003458     0.6840    0.6619    0.1823   -0.0002
    0.6354     0.2180     0.963   -0.043947    0.007176    0.000738    0.012318   -0.003207     0.6835    0.6645    0.1770   -0.0001
    0.6374     0.2110     0.969   -0.036175    0.007262    0.000612    0.011132   -0.003008     0.6839    0.6683    0.1668   -0.0000
    0.6394     0.2025     0.976   -0.022637    0.007384    0.000386    0.007828   -0.002162     0.6836    0.6739    0.1545    0.0000


Main Wing Cp Coefficients
 Panel     CtrlPt.x        CtrlPt.y        CtrlPt.z       Nx      Ny       Nz        Area       Cp
Main WingCp Coefficients
Strip 1
   0       2.393e-01      -6.394e-01       2.536e-09           0.000          -0.000           1.000       3.447e-06         -0.0016
   1       2.349e-01      -6.394e-01       4.565e-09          -0.000          -0.000           1.000       1.014e-05         -0.0025
   2       2.249e-01      -6.394e-01      -3.147e-09           0.000           0.000           1.000       1.624e-05         -0.0034
   3       2.100e-01      -6.394e-01       1.841e-08          -0.000          -0.000           1.000       2.140e-05         -0.0045
   4       1.909e-01      -6.394e-01       3.072e-08           0.000           0.000           1.000       2.532e-05         -0.0058
   5       1.687e-01      -6.394e-01       2.907e-07           0.000           0.000           1.000       2.776e-05         -0.0072
   6       1.449e-01      -6.394e-01       8.378e-07           0.000          -0.000           1.000       2.860e-05         -0.0088
   7       1.206e-01      -6.394e-01      -1.127e-08          -0.000          -0.000           1.000       2.776e-05         -0.0112
   8       9.745e-02      -6.394e-01      -1.467e-06           0.000           0.001           1.000       2.532e-05         -0.0136
   9       7.667e-02      -6.394e-01       1.891e-06          -0.000          -0.001           1.000       2.140e-05         -0.0191
  10       5.951e-02      -6.394e-01      -2.255e-07          -0.000          -0.000           1.000       1.624e-05         -0.0350
  11       4.694e-02      -6.394e-01      -6.862e-07           0.000           0.000           1.000       1.014e-05         -0.1095
  12       3.972e-02      -6.394e-01      -4.085e-07           0.000           0.001           1.000       3.447e-06         -0.5346
Strip 2
  13       2.392e-01      -6.374e-01       2.643e-09           0.000          -0.000           1.000       8.671e-06         -0.0025
  14       2.347e-01      -6.374e-01       4.756e-09          -0.000          -0.000           1.000       2.551e-05         -0.0040
  15       2.243e-01      -6.374e-01      -3.279e-09           0.000           0.000           1.000       4.086e-05         -0.0056
  16       2.087e-01      -6.374e-01       1.918e-08          -0.000          -0.000           1.000       5.384e-05         -0.0074
  17       1.888e-01      -6.374e-01       3.201e-08           0.000           0.000           1.000       6.369e-05         -0.0096
  18       1.657e-01      -6.374e-01       3.030e-07           0.000           0.000           1.000       6.984e-05         -0.0120
  19       1.409e-01      -6.374e-01       8.730e-07           0.000          -0.000           1.000       7.193e-05         -0.0148
  20       1.156e-01      -6.374e-01      -1.175e-08          -0.000          -0.000           1.000       6.984e-05         -0.0192
  21       9.147e-02      -6.374e-01      -1.529e-06           0.000           0.001           1.000       6.369e-05         -0.0238
  22       6.982e-02      -6.374e-01       1.971e-06          -0.000          -0.001           1.000       5.384e-05         -0.0356
  23       5.193e-02      -6.374e-01      -2.349e-07          -0.000          -0.000           1.000       4.086e-05         -0.0819
  24       3.884e-02      -6.374e-01      -7.150e-07           0.000           0.000           1.000       2.551e-05         -0.2195
  25       3.131e-02      -6.374e-01      -4.256e-07           0.000           0.001           1.000       8.671e-06         -0.5303
Strip 3
  26       2.392e-01      -6.354e-01       2.731e-09           0.000          -0.000           1.000       3.711e-06         -0.0031
  27       2.345e-01      -6.354e-01       4.915e-09          -0.000          -0.000           1.000       1.092e-05         -0.0050
  28       2.238e-01      -6.354e-01      -3.388e-09           0.000           0.000           1.000       1.749e-05         -0.0070
  29       2.077e-01      -6.354e-01       1.982e-08          -0.000          -0.000           1.000       2.305e-05         -0.0093
  30       1.871e-01      -6.354e-01       3.308e-08           0.000           0.000           1.000       2.726e-05         -0.0120
  31       1.633e-01      -6.354e-01       3.131e-07           0.000           0.000           1.000       2.989e-05         -0.0151
  32       1.376e-01      -6.354e-01       9.021e-07           0.000          -0.000           1.000       3.079e-05         -0.0190
  33       1.115e-01      -6.354e-01      -1.214e-08          -0.000          -0.000           1.000       2.989e-05         -0.0250
  34       8.651e-02      -6.354e-01      -1.580e-06           0.000           0.000           1.000       2.726e-05         -0.0324
  35       6.414e-02      -6.354e-01       2.036e-06          -0.000          -0.000           1.000       2.305e-05         -0.0519
  36       4.566e-02      -6.354e-01      -2.427e-07          -0.000          -0.000           1.000       1.749e-05         -0.1119
  37       3.213e-02      -6.354e-01      -7.388e-07           0.000           0.000           1.000       1.092e-05         -0.2197
  38       2.435e-02      -6.354e-01      -4.398e-07           0.000           0.000           1.000       3.711e-06         -0.6123
Strip 4
  39       2.392e-01      -6.334e-01       2.775e-09           0.000          -0.000           1.000       9.103e-06         -0.0035
  40       2.344e-01      -6.334e-01       4.994e-09          -0.000          -0.000           1.000       2.678e-05         -0.0058
  41       2.235e-01      -6.334e-01      -3.443e-09           0.000           0.000           1.000       4.290e-05         -0.0083
  42       2.071e-01      -6.334e-01       2.014e-08          -0.000          -0.000           1.000       5.653e-05         -0.0111
  43       1.862e-01      -6.334e-01       3.361e-08           0.000           0.000           1.000       6.687e-05         -0.0143
  44       1.620e-01      -6.334e-01       3.181e-07           0.000           0.000           1.000       7.333e-05         -0.0181
  45       1.359e-01      -6.334e-01       9.166e-07           0.000          -0.000           1.000       7.552e-05         -0.0229
  46       1.094e-01      -6.334e-01      -1.233e-08          -0.000          -0.000           1.000       7.333e-05         -0.0304
  47       8.405e-02      -6.334e-01      -1.605e-06           0.000           0.000           1.000       6.687e-05         -0.0399
  48       6.132e-02      -6.334e-01       2.069e-06          -0.000          -0.000           1.000       5.653e-05         -0.0647
  49       4.254e-02      -6.334e-01      -2.466e-07          -0.000          -0.000           1.000       4.290e-05         -0.1258
  50       2.879e-02      -6.334e-01      -7.507e-07           0.000           0.000           1.000       2.678e-05         -0.2514
  51       2.089e-02      -6.334e-01      -4.469e-07           0.000           0.000           1.000       9.103e-06         -0.6760
Strip 5
  52       2.392e-01      -6.314e-01       2.815e-09           0.000          -0.000           1.000       3.825e-06         -0.0039
  53       2.343e-01      -6.314e-01       5.066e-09          -0.000          -0.000           1.000       1.125e-05         -0.0065
  54       2.233e-01      -6.314e-01      -3.492e-09           0.000           0.000           1.000       1.803e-05         -0.0093
  55       2.067e-01      -6.314e-01       2.043e-08          -0.000          -0.000           1.000       2.375e-05         -0.0125
  56       1.855e-01      -6.314e-01       3.410e-08           0.000           0.000           1.000       2.810e-05         -0.0162
  57       1.609e-01      -6.314e-01       3.227e-07           0.000           0.000           1.000       3.081e-05         -0.0206
  58       1.344e-01      -6.314e-01       9.299e-07           0.000          -0.000           1.000       3.174e-05         -0.0262
  59       1.075e-01      -6.314e-01      -1.251e-08          -0.000          -0.000           1.000       3.081e-05         -0.0349
  60       8.179e-02      -6.314e-01      -1.629e-06           0.000           0.000           1.000       2.810e-05         -0.0464
  61       5.873e-02      -6.314e-01       2.099e-06          -0.000          -0.000           1.000       2.375e-05         -0.0755
  62       3.968e-02      -6.314e-01      -2.502e-07          -0.000          -0.000           1.000       1.803e-05         -0.1398
  63       2.574e-02      -6.314e-01      -7.615e-07           0.000           0.000           1.000       1.125e-05         -0.2722
  64       1.772e-02      -6.314e-01      -4.534e-07           0.000           0.000           1.000       3.825e-06         -0.7046
Strip 6
  65       2.392e-01      -6.294e-01       2.846e-09           0.000          -0.000           1.000       9.338e-06         -0.0042
  66       2.343e-01      -6.294e-01       5.122e-09          -0.000          -0.000           1.000       2.747e-05         -0.0072
  67       2.231e-01      -6.294e-01      -3.531e-09           0.000           0.000           1.000       4.401e-05         -0.0103
  68       2.063e-01      -6.294e-01       2.065e-08          -0.000          -0.000           1.000       5.799e-05         -0.0139
  69       1.849e-01      -6.294e-01       3.448e-08           0.000           0.000           1.000       6.860e-05         -0.0180
  70       1.600e-01      -6.294e-01       3.263e-07           0.000           0.000           1.000       7.522e-05         -0.0230
  71       1.332e-01      -6.294e-01       9.402e-07           0.000          -0.000           1.000       7.747e-05         -0.0293
  72       1.060e-01      -6.294e-01      -1.265e-08          -0.000          -0.000           1.000       7.522e-05         -0.0392
  73       8.003e-02      -6.294e-01      -1.647e-06           0.000           0.000           1.000       6.860e-05         -0.0526
  74       5.672e-02      -6.294e-01       2.122e-06          -0.000          -0.000           1.000       5.799e-05         -0.0854
  75       3.745e-02      -6.294e-01      -2.530e-07          -0.000          -0.000           1.000       4.401e-05         -0.1519
  76       2.335e-02      -6.294e-01      -7.700e-07           0.000           0.000           1.000       2.747e-05         -0.2915
  77       1.524e-02      -6.294e-01      -4.584e-07           0.000           0.000           1.000       9.338e-06         -0.7340
Strip 7
  78       2.392e-01      -6.277e-01       2.871e-09           0.000          -0.000           1.000       1.785e-06         -0.0044
  79       2.342e-01      -6.277e-01       5.167e-09          -0.000          -0.000           1.000       5.250e-06         -0.0076
  80       2.229e-01      -6.277e-01      -3.562e-09           0.000           0.000           1.000       8.410e-06         -0.0110
  81       2.060e-01      -6.277e-01       2.083e-08          -0.000          -0.000           1.000       1.108e-05         -0.0148
  82       1.844e-01      -6.277e-01       3.477e-08           0.000           0.000           1.000       1.311e-05         -0.0192
  83       1.593e-01      -6.277e-01       3.291e-07           0.000           0.000           1.000       1.438e-05         -0.0245
  84       1.323e-01      -6.277e-01       9.483e-07           0.000          -0.000           1.000       1.481e-05         -0.0313
  85       1.049e-01      -6.277e-01      -1.276e-08          -0.000          -0.000           1.000       1.438e-05         -0.0420
  86       7.865e-02      -6.277e-01      -1.661e-06           0.000           0.000           1.000       1.311e-05         -0.0568
  87       5.513e-02      -6.277e-01       2.141e-06          -0.000          -0.000           1.000       1.108e-05         -0.0913
  88       3.570e-02      -6.277e-01      -2.552e-07          -0.000          -0.000           1.000       8.410e-06         -0.1592
  89       2.148e-02      -6.277e-01      -7.767e-07           0.000           0.000           1.000       5.250e-06         -0.3007
  90       1.330e-02      -6.277e-01      -4.624e-07           0.000           0.000           1.000       1.785e-06         -0.7564
Strip 8
  91       2.392e-01      -6.267e-01       2.880e-09           0.000          -0.000           1.000       4.892e-06         -0.0046
  92       2.342e-01      -6.267e-01       5.184e-09          -0.000          -0.000           1.000       1.439e-05         -0.0080
  93       2.229e-01      -6.267e-01      -3.574e-09           0.000           0.000           1.000       2.305e-05         -0.0116
  94       2.059e-01      -6.267e-01       2.090e-08          -0.000          -0.000           1.000       3.038e-05         -0.0156
  95       1.842e-01      -6.267e-01       3.489e-08           0.000           0.000           1.000       3.593e-05         -0.0203
  96       1.591e-01      -6.267e-01       3.302e-07           0.000           0.000           1.000       3.940e-05         -0.0259
  97       1.320e-01      -6.267e-01       9.514e-07           0.000          -0.000           1.000       4.058e-05         -0.0332
  98       1.044e-01      -6.267e-01      -1.280e-08          -0.000          -0.000           1.000       3.940e-05         -0.0446
  99       7.812e-02      -6.267e-01      -1.666e-06           0.000           0.000           1.000       3.593e-05         -0.0605
 100       5.452e-02      -6.267e-01       2.148e-06          -0.000          -0.000           1.000       3.038e-05         -0.0966
 101       3.503e-02      -6.267e-01      -2.560e-07          -0.000          -0.000           1.000       2.305e-05         -0.1654
 102       2.076e-02      -6.267e-01      -7.792e-07           0.000           0.000           1.000       1.439e-05         -0.3055
 103       1.255e-02      -6.267e-01      -4.639e-07           0.000           0.000           1.000       4.892e-06         -0.7952
Strip 9
 104       2.392e-01      -6.250e-01       2.896e-09           0.000          -0.000           1.000       6.720e-06         -0.0049
 105       2.342e-01      -6.250e-01       5.213e-09          -0.000          -0.000           1.000       1.977e-05         -0.0084
 106       2.228e-01      -6.250e-01      -3.594e-09           0.000           0.000           1.000       3.167e-05         -0.0123
 107       2.057e-01      -6.250e-01       2.102e-08          -0.000          -0.000           1.000       4.173e-05         -0.0166
 108       1.839e-01      -6.250e-01       3.509e-08           0.000           0.000           1.000       4.936e-05         -0.0216
 109       1.586e-01      -6.250e-01       3.320e-07           0.000           0.000           1.000       5.413e-05         -0.0277
 110       1.313e-01      -6.250e-01       9.568e-07           0.000          -0.000           1.000       5.575e-05         -0.0356
 111       1.037e-01      -6.250e-01      -1.288e-08          -0.000          -0.000           1.000       5.413e-05         -0.0479
 112       7.720e-02      -6.250e-01      -1.676e-06           0.000           0.000           1.000       4.936e-05         -0.0651
 113       5.348e-02      -6.250e-01       2.160e-06          -0.000          -0.000           1.000       4.173e-05         -0.1030
 114       3.387e-02      -6.250e-01      -2.575e-07          -0.000          -0.000           1.000       3.167e-05         -0.1728
 115       1.952e-02      -6.250e-01      -7.836e-07           0.000           0.000           1.000       1.977e-05         -0.3160
 116       1.127e-02      -6.250e-01      -4.665e-07           0.000           0.000           1.000       6.720e-06         -0.8287
Strip 10
 117       2.392e-01      -6.239e-01       2.906e-09           0.000          -0.000           1.000       4.595e-07         -0.0050
 118       2.341e-01      -6.239e-01       5.231e-09          -0.000          -0.000           1.000       1.352e-06         -0.0086
 119       2.227e-01      -6.239e-01      -3.606e-09           0.000           0.000           1.000       2.166e-06         -0.0126
 120       2.056e-01      -6.239e-01       2.109e-08          -0.000          -0.000           1.000       2.854e-06         -0.0170
 121       1.837e-01      -6.239e-01       3.521e-08           0.000           0.000           1.000       3.376e-06         -0.0222
 122       1.583e-01      -6.239e-01       3.332e-07           0.000           0.000           1.000       3.702e-06         -0.0284
 123       1.310e-01      -6.239e-01       9.601e-07           0.000          -0.000           1.000       3.812e-06         -0.0365
 124       1.032e-01      -6.239e-01      -1.292e-08          -0.000          -0.000           1.000       3.702e-06         -0.0491
 125       7.664e-02      -6.239e-01      -1.682e-06           0.000           0.000           1.000       3.376e-06         -0.0669
 126       5.283e-02      -6.239e-01       2.167e-06          -0.000          -0.000           1.000       2.854e-06         -0.1054
 127       3.316e-02      -6.239e-01      -2.584e-07          -0.000          -0.000           1.000       2.166e-06         -0.1757
 128       1.876e-02      -6.239e-01      -7.863e-07           0.000           0.000           1.000       1.352e-06         -0.3209
 129       1.048e-02      -6.239e-01      -4.681e-07           0.000           0.000           1.000       4.595e-07         -0.8328
Strip 11
 130       2.392e-01      -6.237e-01       2.909e-09           0.000           0.000           1.000       1.348e-06         -0.0051
 131       2.341e-01      -6.237e-01       5.236e-09          -0.000          -0.000           1.000       3.967e-06         -0.0088
 132       2.227e-01      -6.237e-01      -3.609e-09           0.000           0.000           1.000       6.355e-06         -0.0128
 133       2.056e-01      -6.237e-01       2.111e-08          -0.000          -0.000           1.000       8.373e-06         -0.0173
 134       1.836e-01      -6.237e-01       3.524e-08           0.000           0.000           1.000       9.905e-06         -0.0226
 135       1.583e-01      -6.237e-01       3.335e-07           0.000           0.000           1.000       1.086e-05         -0.0290
 136       1.309e-01      -6.237e-01       9.610e-07           0.000          -0.000           1.000       1.119e-05         -0.0372
 137       1.031e-01      -6.237e-01      -1.293e-08          -0.000          -0.000           1.000       1.086e-05         -0.0502
 138       7.650e-02      -6.237e-01      -1.683e-06           0.000           0.000           1.000       9.905e-06         -0.0684
 139       5.267e-02      -6.237e-01       2.169e-06          -0.000          -0.000           1.000       8.373e-06         -0.1074
 140       3.298e-02      -6.237e-01      -2.586e-07          -0.000          -0.000           1.000       6.355e-06         -0.1784
 141       1.857e-02      -6.237e-01      -7.870e-07           0.000           0.000           1.000       3.967e-06         -0.3253
 142       1.028e-02      -6.237e-01      -4.685e-07           0.000           0.000           1.000       1.348e-06         -0.8373
Strip 12
 143       2.392e-01      -6.231e-01       2.914e-09           0.000          -0.000           1.000       2.149e-06         -0.0052
 144       2.341e-01      -6.231e-01       5.244e-09          -0.000          -0.000           1.000       6.321e-06         -0.0089
 145       2.227e-01      -6.231e-01      -3.615e-09           0.000           0.000           1.000       1.013e-05         -0.0131
 146       2.055e-01      -6.231e-01       2.115e-08          -0.000          -0.000           1.000       1.334e-05         -0.0177
 147       1.835e-01      -6.231e-01       3.530e-08           0.000           0.000           1.000       1.578e-05         -0.0231
 148       1.581e-01      -6.231e-01       3.340e-07           0.000           0.000           1.000       1.731e-05         -0.0297
 149       1.307e-01      -6.231e-01       9.626e-07           0.000          -0.000           1.000       1.783e-05         -0.0382
 150       1.029e-01      -6.231e-01      -1.295e-08          -0.000          -0.000           1.000       1.731e-05         -0.0515
 151       7.622e-02      -6.231e-01      -1.686e-06           0.000           0.000           1.000       1.578e-05         -0.0702
 152       5.236e-02      -6.231e-01       2.173e-06          -0.000          -0.000           1.000       1.334e-05         -0.1100
 153       3.263e-02      -6.231e-01      -2.590e-07          -0.000          -0.000           1.000       1.013e-05         -0.1818
 154       1.820e-02      -6.231e-01      -7.883e-07           0.000           0.000           1.000       6.321e-06         -0.3309
 155       9.895e-03      -6.231e-01      -4.693e-07           0.000           0.000           1.000       2.149e-06         -0.8412
Strip 13
 156       2.392e-01      -6.224e-01       2.921e-09           0.000          -0.000           1.000       2.807e-06         -0.0053
 157       2.341e-01      -6.224e-01       5.257e-09          -0.000          -0.000           1.000       8.257e-06         -0.0091
 158       2.227e-01      -6.224e-01      -3.624e-09           0.000           0.000           1.000       1.323e-05         -0.0134
 159       2.054e-01      -6.224e-01       2.120e-08          -0.000          -0.000           1.000       1.743e-05         -0.0182
 160       1.834e-01      -6.224e-01       3.538e-08           0.000           0.000           1.000       2.062e-05         -0.0238
 161       1.579e-01      -6.224e-01       3.348e-07           0.000           0.000           1.000       2.261e-05         -0.0305
 162       1.304e-01      -6.224e-01       9.648e-07           0.000          -0.000           1.000       2.329e-05         -0.0393
 163       1.025e-01      -6.224e-01      -1.298e-08          -0.000          -0.000           1.000       2.261e-05         -0.0530
 164       7.584e-02      -6.224e-01      -1.690e-06           0.000           0.000           1.000       2.062e-05         -0.0724
 165       5.191e-02      -6.224e-01       2.178e-06          -0.000          -0.000           1.000       1.743e-05         -0.1130
 166       3.214e-02      -6.224e-01      -2.596e-07          -0.000          -0.000           1.000       1.323e-05         -0.1859
 167       1.767e-02      -6.224e-01      -7.902e-07           0.000           0.000           1.000       8.257e-06         -0.3375
 168       9.352e-03      -6.224e-01      -4.704e-07           0.000           0.000           1.000       2.807e-06         -0.8435
Strip 14
 169       2.392e-01      -6.215e-01       2.929e-09           0.000          -0.000           1.000       3.278e-06         -0.0054
 170       2.341e-01      -6.215e-01       5.272e-09          -0.000          -0.000           1.000       9.643e-06         -0.0094
 171       2.226e-01      -6.215e-01      -3.634e-09           0.000           0.000           1.000       1.545e-05         -0.0138
 172       2.053e-01      -6.215e-01       2.126e-08          -0.000          -0.000           1.000       2.036e-05         -0.0187
 173       1.833e-01      -6.215e-01       3.548e-08           0.000           0.000           1.000       2.408e-05         -0.0245
 174       1.577e-01      -6.215e-01       3.358e-07           0.000           0.000           1.000       2.640e-05         -0.0314
 175       1.301e-01      -6.215e-01       9.676e-07           0.000          -0.000           1.000       2.719e-05         -0.0405
 176       1.021e-01      -6.215e-01      -1.302e-08          -0.000          -0.000           1.000       2.640e-05         -0.0547
 177       7.536e-02      -6.215e-01      -1.695e-06           0.000           0.000           1.000       2.408e-05         -0.0749
 178       5.137e-02      -6.215e-01       2.184e-06          -0.000          -0.000           1.000       2.036e-05         -0.1164
 179       3.154e-02      -6.215e-01      -2.604e-07          -0.000          -0.000           1.000       1.545e-05         -0.1904
 180       1.703e-02      -6.215e-01      -7.925e-07           0.000           0.000           1.000       9.643e-06         -0.3450
 181       8.687e-03      -6.215e-01      -4.718e-07           0.000           0.000           1.000       3.278e-06         -0.8433
Strip 15
 182       2.391e-01      -6.205e-01       2.938e-09           0.000          -0.000           1.000       3.529e-06         -0.0055
 183       2.341e-01      -6.205e-01       5.289e-09          -0.000          -0.000           1.000       1.038e-05         -0.0096
 184       2.225e-01      -6.205e-01      -3.646e-09           0.000           0.000           1.000       1.663e-05         -0.0142
 185       2.052e-01      -6.205e-01       2.132e-08          -0.000          -0.000           1.000       2.191e-05         -0.0193
 186       1.831e-01      -6.205e-01       3.560e-08           0.000           0.000           1.000       2.592e-05         -0.0252
 187       1.574e-01      -6.205e-01       3.369e-07           0.000           0.000           1.000       2.843e-05         -0.0324
 188       1.298e-01      -6.205e-01       9.707e-07           0.000          -0.000           1.000       2.928e-05         -0.0418
 189       1.017e-01      -6.205e-01      -1.306e-08          -0.000          -0.000           1.000       2.843e-05         -0.0565
 190       7.484e-02      -6.205e-01      -1.700e-06           0.000           0.000           1.000       2.592e-05         -0.0773
 191       5.076e-02      -6.205e-01       2.191e-06          -0.000          -0.000           1.000       2.191e-05         -0.1197
 192       3.087e-02      -6.205e-01      -2.612e-07          -0.000          -0.000           1.000       1.663e-05         -0.1951
 193       1.632e-02      -6.205e-01      -7.950e-07           0.000           0.000           1.000       1.038e-05         -0.3526
 194       7.945e-03      -6.205e-01      -4.733e-07           0.000           0.000           1.000       3.529e-06         -0.8418
Strip 16
 195       2.391e-01      -6.200e-01       2.943e-09           0.000          -0.000           1.000       1.168e-07         -0.0055
 196       2.341e-01      -6.200e-01       5.298e-09          -0.000          -0.000           1.000       3.437e-07         -0.0097
 197       2.225e-01      -6.200e-01      -3.652e-09           0.000           0.000           1.000       5.507e-07         -0.0143
 198       2.051e-01      -6.200e-01       2.136e-08          -0.000          -0.000           1.000       7.256e-07         -0.0194
 199       1.830e-01      -6.200e-01       3.566e-08           0.000           0.000           1.000       8.583e-07         -0.0254
 200       1.573e-01      -6.200e-01       3.374e-07           0.000           0.000           1.000       9.412e-07         -0.0326
 201       1.296e-01      -6.200e-01       9.724e-07           0.000          -0.000           1.000       9.694e-07         -0.0421
 202       1.015e-01      -6.200e-01      -1.309e-08          -0.000          -0.000           1.000       9.412e-07         -0.0569
 203       7.456e-02      -6.200e-01      -1.703e-06           0.000           0.000           1.000       8.583e-07         -0.0779
 204       5.044e-02      -6.200e-01       2.195e-06          -0.000          -0.000           1.000       7.256e-07         -0.1205
 205       3.052e-02      -6.200e-01      -2.617e-07          -0.000          -0.000           1.000       5.507e-07         -0.1962
 206       1.594e-02      -6.200e-01      -7.963e-07           0.000           0.000           1.000       3.437e-07         -0.3537
 207       7.552e-03      -6.200e-01      -4.741e-07           0.000           0.000           1.000       1.168e-07         -0.8428
Strip 17
 208       2.391e-01      -6.199e-01       2.944e-09           0.000           0.000           1.000       3.486e-07         -0.0056
 209       2.341e-01      -6.199e-01       5.299e-09          -0.000          -0.000           1.000       1.025e-06         -0.0097
 210       2.225e-01      -6.199e-01      -3.653e-09           0.000           0.000           1.000       1.643e-06         -0.0143
 211       2.051e-01      -6.199e-01       2.136e-08          -0.000          -0.000           1.000       2.165e-06         -0.0195
 212       1.830e-01      -6.199e-01       3.566e-08           0.000           0.000           1.000       2.561e-06         -0.0255
 213       1.573e-01      -6.199e-01       3.375e-07           0.000           0.000           1.000       2.808e-06         -0.0328
 214       1.296e-01      -6.199e-01       9.725e-07           0.000          -0.000           1.000       2.892e-06         -0.0424
 215       1.014e-01      -6.199e-01      -1.309e-08          -0.000          -0.000           1.000       2.808e-06         -0.0573
 216       7.453e-02      -6.199e-01      -1.703e-06           0.000           0.000           1.000       2.561e-06         -0.0785
 217       5.042e-02      -6.199e-01       2.195e-06          -0.000          -0.000           1.000       2.165e-06         -0.1213
 218       3.049e-02      -6.199e-01      -2.617e-07          -0.000          -0.000           1.000       1.643e-06         -0.1972
 219       1.591e-02      -6.199e-01      -7.965e-07           0.000           0.000           1.000       1.025e-06         -0.3549
 220       7.519e-03      -6.199e-01      -4.742e-07           0.000           0.000           1.000       3.486e-07         -0.8447
Strip 18
 221       2.391e-01      -6.198e-01       2.945e-09           0.000          -0.000           1.000       5.745e-07         -0.0056
 222       2.341e-01      -6.198e-01       5.300e-09          -0.000          -0.000           1.000       1.690e-06         -0.0098
 223       2.225e-01      -6.198e-01      -3.654e-09           0.000           0.000           1.000       2.708e-06         -0.0144
 224       2.051e-01      -6.198e-01       2.137e-08          -0.000          -0.000           1.000       3.568e-06         -0.0196
 225       1.830e-01      -6.198e-01       3.567e-08           0.000           0.000           1.000       4.220e-06         -0.0257
 226       1.573e-01      -6.198e-01       3.376e-07           0.000           0.000           1.000       4.628e-06         -0.0331
 227       1.295e-01      -6.198e-01       9.728e-07           0.000          -0.000           1.000       4.766e-06         -0.0427
 228       1.014e-01      -6.198e-01      -1.309e-08          -0.000          -0.000           1.000       4.628e-06         -0.0577
 229       7.449e-02      -6.198e-01      -1.704e-06           0.000           0.000           1.000       4.220e-06         -0.0791
 230       5.036e-02      -6.198e-01       2.196e-06          -0.000          -0.000           1.000       3.568e-06         -0.1221
 231       3.043e-02      -6.198e-01      -2.618e-07          -0.000          -0.000           1.000       2.708e-06         -0.1983
 232       1.584e-02      -6.198e-01      -7.967e-07           0.000           0.000           1.000       1.690e-06         -0.3562
 233       7.452e-03      -6.198e-01      -4.743e-07           0.000           0.000           1.000       5.745e-07         -0.8476
Strip 19
 234       2.391e-01      -6.196e-01       2.946e-09           0.000          -0.000           1.000       7.908e-07         -0.0056
 235       2.341e-01      -6.196e-01       5.302e-09          -0.000          -0.000           1.000       2.327e-06         -0.0099
 236       2.225e-01      -6.196e-01      -3.655e-09           0.000           0.000           1.000       3.727e-06         -0.0146
 237       2.051e-01      -6.196e-01       2.138e-08          -0.000          -0.000           1.000       4.911e-06         -0.0198
 238       1.829e-01      -6.196e-01       3.569e-08           0.000           0.000           1.000       5.809e-06         -0.0259
 239       1.572e-01      -6.196e-01       3.377e-07           0.000           0.000           1.000       6.370e-06         -0.0333
 240       1.295e-01      -6.196e-01       9.732e-07           0.000          -0.000           1.000       6.561e-06         -0.0431
 241       1.013e-01      -6.196e-01      -1.310e-08          -0.000          -0.000           1.000       6.370e-06         -0.0583
 242       7.442e-02      -6.196e-01      -1.704e-06           0.000           0.000           1.000       5.809e-06         -0.0798
 243       5.028e-02      -6.196e-01       2.197e-06          -0.000          -0.000           1.000       4.911e-06         -0.1231
 244       3.034e-02      -6.196e-01      -2.619e-07          -0.000          -0.000           1.000       3.727e-06         -0.1996
 245       1.575e-02      -6.196e-01      -7.970e-07           0.000           0.000           1.000       2.327e-06         -0.3574
 246       7.353e-03      -6.196e-01      -4.745e-07           0.000           0.000           1.000       7.908e-07         -0.8515
Strip 20
 247       2.391e-01      -6.193e-01       2.948e-09           0.000          -0.000           1.000       9.939e-07         -0.0057
 248       2.341e-01      -6.193e-01       5.305e-09          -0.000          -0.000           1.000       2.924e-06         -0.0099
 249       2.225e-01      -6.193e-01      -3.657e-09           0.000           0.000           1.000       4.684e-06         -0.0147
 250       2.051e-01      -6.193e-01       2.139e-08          -0.000          -0.000           1.000       6.172e-06         -0.0200
 251       1.829e-01      -6.193e-01       3.571e-08           0.000           0.000           1.000       7.301e-06         -0.0262
 252       1.572e-01      -6.193e-01       3.379e-07           0.000           0.000           1.000       8.006e-06         -0.0337
 253       1.294e-01      -6.193e-01       9.737e-07           0.000          -0.000           1.000       8.246e-06         -0.0435
 254       1.013e-01      -6.193e-01      -1.310e-08          -0.000          -0.000           1.000       8.006e-06         -0.0588
 255       7.432e-02      -6.193e-01      -1.705e-06           0.000           0.000           1.000       7.301e-06         -0.0806
 256       5.018e-02      -6.193e-01       2.198e-06          -0.000          -0.000           1.000       6.172e-06         -0.1242
 257       3.022e-02      -6.193e-01      -2.620e-07          -0.000          -0.000           1.000       4.684e-06         -0.2010
 258       1.562e-02      -6.193e-01      -7.975e-07           0.000           0.000           1.000       2.924e-06         -0.3587
 259       7.224e-03      -6.193e-01      -4.748e-07           0.000           0.000           1.000       9.939e-07         -0.8565
Strip 21
 260       2.391e-01      -6.190e-01       2.950e-09           0.000          -0.000           1.000       1.180e-06         -0.0057
 261       2.341e-01      -6.190e-01       5.309e-09          -0.000          -0.000           1.000       3.473e-06         -0.0100
 262       2.225e-01      -6.190e-01      -3.660e-09           0.000           0.000           1.000       5.563e-06         -0.0148
 263       2.051e-01      -6.190e-01       2.141e-08          -0.000          -0.000           1.000       7.330e-06         -0.0202
 264       1.829e-01      -6.190e-01       3.573e-08           0.000           0.000           1.000       8.671e-06         -0.0265
 265       1.571e-01      -6.190e-01       3.381e-07           0.000           0.000           1.000       9.508e-06         -0.0340
 266       1.293e-01      -6.190e-01       9.744e-07           0.000          -0.000           1.000       9.793e-06         -0.0440
 267       1.012e-01      -6.190e-01      -1.311e-08          -0.000          -0.000           1.000       9.508e-06         -0.0595
 268       7.421e-02      -6.190e-01      -1.707e-06           0.000           0.000           1.000       8.671e-06         -0.0816
 269       5.005e-02      -6.190e-01       2.199e-06          -0.000          -0.000           1.000       7.330e-06         -0.1254
 270       3.008e-02      -6.190e-01      -2.622e-07          -0.000          -0.000           1.000       5.563e-06         -0.2026
 271       1.547e-02      -6.190e-01      -7.980e-07           0.000           0.000           1.000       3.473e-06         -0.3601
 272       7.067e-03      -6.190e-01      -4.751e-07           0.000           0.000           1.000       1.180e-06         -0.8622
Strip 22
 273       2.391e-01      -6.186e-01       2.952e-09           0.000          -0.000           1.000       1.347e-06         -0.0058
 274       2.341e-01      -6.186e-01       5.313e-09          -0.000          -0.000           1.000       3.963e-06         -0.0101
 275       2.225e-01      -6.186e-01      -3.663e-09           0.000           0.000           1.000       6.348e-06         -0.0150
 276       2.050e-01      -6.186e-01       2.142e-08          -0.000          -0.000           1.000       8.365e-06         -0.0204
 277       1.828e-01      -6.186e-01       3.576e-08           0.000           0.000           1.000       9.895e-06         -0.0268
 278       1.570e-01      -6.186e-01       3.384e-07           0.000           0.000           1.000       1.085e-05         -0.0344
 279       1.293e-01      -6.186e-01       9.752e-07           0.000          -0.000           1.000       1.118e-05         -0.0446
 280       1.011e-01      -6.186e-01      -1.312e-08          -0.000          -0.000           1.000       1.085e-05         -0.0603
 281       7.408e-02      -6.186e-01      -1.708e-06           0.000           0.000           1.000       9.895e-06         -0.0826
 282       4.990e-02      -6.186e-01       2.201e-06          -0.000          -0.000           1.000       8.365e-06         -0.1268
 283       2.992e-02      -6.186e-01      -2.624e-07          -0.000          -0.000           1.000       6.348e-06         -0.2044
 284       1.530e-02      -6.186e-01      -7.986e-07           0.000           0.000           1.000       3.963e-06         -0.3619
 285       6.884e-03      -6.186e-01      -4.755e-07           0.000           0.000           1.000       1.347e-06         -0.8681
Strip 23
 286       2.391e-01      -6.182e-01       2.954e-09           0.000          -0.000           1.000       1.491e-06         -0.0058
 287       2.341e-01      -6.182e-01       5.318e-09          -0.000          -0.000           1.000       4.386e-06         -0.0102
 288       2.225e-01      -6.182e-01      -3.666e-09           0.000           0.000           1.000       7.027e-06         -0.0152
 289       2.050e-01      -6.182e-01       2.144e-08          -0.000          -0.000           1.000       9.259e-06         -0.0207
 290       1.828e-01      -6.182e-01       3.579e-08           0.000           0.000           1.000       1.095e-05         -0.0271
 291       1.570e-01      -6.182e-01       3.387e-07           0.000           0.000           1.000       1.201e-05         -0.0349
 292       1.292e-01      -6.182e-01       9.760e-07           0.000          -0.000           1.000       1.237e-05         -0.0451
 293       1.009e-01      -6.182e-01      -1.313e-08          -0.000          -0.000           1.000       1.201e-05         -0.0611
 294       7.394e-02      -6.182e-01      -1.709e-06           0.000           0.000           1.000       1.095e-05         -0.0837
 295       4.973e-02      -6.182e-01       2.203e-06          -0.000          -0.000           1.000       9.259e-06         -0.1282
 296       2.973e-02      -6.182e-01      -2.626e-07          -0.000          -0.000           1.000       7.027e-06         -0.2062
 297       1.510e-02      -6.182e-01      -7.993e-07           0.000           0.000           1.000       4.386e-06         -0.3641
 298       6.679e-03      -6.182e-01      -4.759e-07           0.000           0.000           1.000       1.491e-06         -0.8737
Strip 24
 299       2.391e-01      -6.178e-01       2.957e-09           0.000          -0.000           1.000       1.610e-06         -0.0059
 300       2.340e-01      -6.178e-01       5.323e-09          -0.000          -0.000           1.000       4.736e-06         -0.0104
 301       2.224e-01      -6.178e-01      -3.669e-09           0.000           0.000           1.000       7.587e-06         -0.0154
 302       2.050e-01      -6.178e-01       2.146e-08          -0.000          -0.000           1.000       9.997e-06         -0.0209
 303       1.827e-01      -6.178e-01       3.582e-08           0.000           0.000           1.000       1.183e-05         -0.0274
 304       1.569e-01      -6.178e-01       3.390e-07           0.000           0.000           1.000       1.297e-05         -0.0353
 305       1.291e-01      -6.178e-01       9.770e-07           0.000          -0.000           1.000       1.336e-05         -0.0458
 306       1.008e-01      -6.178e-01      -1.315e-08          -0.000          -0.000           1.000       1.297e-05         -0.0619
 307       7.378e-02      -6.178e-01      -1.711e-06           0.000           0.000           1.000       1.183e-05         -0.0849
 308       4.955e-02      -6.178e-01       2.205e-06          -0.000          -0.000           1.000       9.997e-06         -0.1298
 309       2.953e-02      -6.178e-01      -2.629e-07          -0.000          -0.000           1.000       7.587e-06         -0.2082
 310       1.488e-02      -6.178e-01      -8.001e-07           0.000           0.000           1.000       4.736e-06         -0.3668
 311       6.456e-03      -6.178e-01      -4.763e-07           0.000           0.000           1.000       1.610e-06         -0.8787
Strip 25
 312       2.391e-01      -6.173e-01       2.960e-09           0.000          -0.000           1.000       1.701e-06         -0.0060
 313       2.340e-01      -6.173e-01       5.328e-09          -0.000          -0.000           1.000       5.005e-06         -0.0105
 314       2.224e-01      -6.173e-01      -3.673e-09           0.000           0.000           1.000       8.019e-06         -0.0156
 315       2.049e-01      -6.173e-01       2.148e-08          -0.000          -0.000           1.000       1.057e-05         -0.0212
 316       1.826e-01      -6.173e-01       3.586e-08           0.000           0.000           1.000       1.250e-05         -0.0278
 317       1.568e-01      -6.173e-01       3.394e-07           0.000           0.000           1.000       1.371e-05         -0.0358
 318       1.289e-01      -6.173e-01       9.780e-07           0.000          -0.000           1.000       1.412e-05         -0.0464
 319       1.007e-01      -6.173e-01      -1.316e-08          -0.000          -0.000           1.000       1.371e-05         -0.0628
 320       7.361e-02      -6.173e-01      -1.713e-06           0.000           0.000           1.000       1.250e-05         -0.0861
 321       4.936e-02      -6.173e-01       2.207e-06          -0.000          -0.000           1.000       1.057e-05         -0.1314
 322       2.932e-02      -6.173e-01      -2.632e-07          -0.000          -0.000           1.000       8.019e-06         -0.2102
 323       1.465e-02      -6.173e-01      -8.009e-07           0.000           0.000           1.000       5.005e-06         -0.3699
 324       6.217e-03      -6.173e-01      -4.768e-07           0.000           0.000           1.000       1.701e-06         -0.8831
Strip 26
 325       2.391e-01      -6.168e-01       2.963e-09           0.000          -0.000           1.000       1.764e-06         -0.0060
 326       2.340e-01      -6.168e-01       5.334e-09          -0.000          -0.000           1.000       5.190e-06         -0.0106
 327       2.224e-01      -6.168e-01      -3.677e-09           0.000           0.000           1.000       8.314e-06         -0.0157
 328       2.049e-01      -6.168e-01       2.151e-08          -0.000          -0.000           1.000       1.096e-05         -0.0215
 329       1.826e-01      -6.168e-01       3.590e-08           0.000           0.000           1.000       1.296e-05         -0.0282
 330       1.567e-01      -6.168e-01       3.397e-07           0.000           0.000           1.000       1.421e-05         -0.0363
 331       1.288e-01      -6.168e-01       9.790e-07           0.000          -0.000           1.000       1.464e-05         -0.0471
 332       1.005e-01      -6.168e-01      -1.317e-08          -0.000          -0.000           1.000       1.421e-05         -0.0637
 333       7.343e-02      -6.168e-01      -1.715e-06           0.000           0.000           1.000       1.296e-05         -0.0873
 334       4.915e-02      -6.168e-01       2.210e-06          -0.000          -0.000           1.000       1.096e-05         -0.1330
 335       2.909e-02      -6.168e-01      -2.634e-07          -0.000          -0.000           1.000       8.314e-06         -0.2123
 336       1.441e-02      -6.168e-01      -8.018e-07           0.000           0.000           1.000       5.190e-06         -0.3732
 337       5.968e-03      -6.168e-01      -4.773e-07           0.000           0.000           1.000       1.764e-06         -0.8871
Strip 27
 338       2.391e-01      -6.163e-01       2.967e-09           0.000          -0.000           1.000       1.797e-06         -0.0061
 339       2.340e-01      -6.163e-01       5.340e-09          -0.000          -0.000           1.000       5.286e-06         -0.0107
 340       2.224e-01      -6.163e-01      -3.681e-09           0.000           0.000           1.000       8.468e-06         -0.0159
 341       2.049e-01      -6.163e-01       2.153e-08          -0.000          -0.000           1.000       1.116e-05         -0.0218
 342       1.825e-01      -6.163e-01       3.594e-08           0.000           0.000           1.000       1.320e-05         -0.0286
 343       1.566e-01      -6.163e-01       3.401e-07           0.000           0.000           1.000       1.447e-05         -0.0368
 344       1.287e-01      -6.163e-01       9.801e-07           0.000          -0.000           1.000       1.491e-05         -0.0477
 345       1.004e-01      -6.163e-01      -1.319e-08          -0.000          -0.000           1.000       1.447e-05         -0.0646
 346       7.325e-02      -6.163e-01      -1.717e-06           0.000           0.000           1.000       1.320e-05         -0.0885
 347       4.894e-02      -6.163e-01       2.212e-06          -0.000          -0.000           1.000       1.116e-05         -0.1346
 348       2.886e-02      -6.163e-01      -2.637e-07          -0.000          -0.000           1.000       8.468e-06         -0.2143
 349       1.417e-02      -6.163e-01      -8.026e-07           0.000           0.000           1.000       5.286e-06         -0.3764
 350       5.712e-03      -6.163e-01      -4.778e-07           0.000           0.000           1.000       1.797e-06         -0.8915
Strip 28
 351       2.391e-01      -6.160e-01       2.968e-09           0.000           0.000           1.000       1.178e-07         -0.0061
 352       2.340e-01      -6.160e-01       5.343e-09          -0.000          -0.000           1.000       3.467e-07         -0.0108
 353       2.224e-01      -6.160e-01      -3.683e-09           0.000           0.000           1.000       5.553e-07         -0.0160
 354       2.049e-01      -6.160e-01       2.154e-08          -0.000          -0.000           1.000       7.317e-07         -0.0219
 355       1.825e-01      -6.160e-01       3.596e-08           0.000           0.000           1.000       8.656e-07         -0.0287
 356       1.566e-01      -6.160e-01       3.403e-07           0.000           0.000           1.000       9.492e-07         -0.0370
 357       1.286e-01      -6.160e-01       9.806e-07           0.000          -0.000           1.000       9.776e-07         -0.0480
 358       1.003e-01      -6.160e-01      -1.320e-08          -0.000          -0.000           1.000       9.492e-07         -0.0649
 359       7.315e-02      -6.160e-01      -1.717e-06           0.000           0.000           1.000       8.656e-07         -0.0890
 360       4.884e-02      -6.160e-01       2.213e-06          -0.000          -0.000           1.000       7.317e-07         -0.1351
 361       2.874e-02      -6.160e-01      -2.639e-07          -0.000          -0.000           1.000       5.553e-07         -0.2149
 362       1.404e-02      -6.160e-01      -8.031e-07           0.000           0.000           1.000       3.467e-07         -0.3773
 363       5.578e-03      -6.160e-01      -4.781e-07           0.000           0.000           1.000       1.178e-07         -0.8942
Strip 29
 364       2.391e-01      -6.159e-01       2.969e-09           0.000          -0.000           1.000       3.515e-07         -0.0061
 365       2.340e-01      -6.159e-01       5.343e-09          -0.000          -0.000           1.000       1.034e-06         -0.0108
 366       2.224e-01      -6.159e-01      -3.683e-09           0.000           0.000           1.000       1.657e-06         -0.0161
 367       2.048e-01      -6.159e-01       2.154e-08          -0.000          -0.000           1.000       2.183e-06         -0.0219
 368       1.825e-01      -6.159e-01       3.596e-08           0.000           0.000           1.000       2.582e-06         -0.0288
 369       1.566e-01      -6.159e-01       3.403e-07           0.000           0.000           1.000       2.832e-06         -0.0372
 370       1.286e-01      -6.159e-01       9.807e-07           0.000          -0.000           1.000       2.916e-06         -0.0482
 371       1.003e-01      -6.159e-01      -1.320e-08          -0.000          -0.000           1.000       2.832e-06         -0.0652
 372       7.314e-02      -6.159e-01      -1.718e-06           0.000           0.000           1.000       2.582e-06         -0.0893
 373       4.882e-02      -6.159e-01       2.214e-06          -0.000          -0.000           1.000       2.183e-06         -0.1356
 374       2.873e-02      -6.159e-01      -2.639e-07          -0.000          -0.000           1.000       1.657e-06         -0.2155
 375       1.402e-02      -6.159e-01      -8.032e-07           0.000           0.000           1.000       1.034e-06         -0.3780
 376       5.561e-03      -6.159e-01      -4.781e-07           0.000           0.000           1.000       3.515e-07         -0.8968
Strip 30
 377       2.391e-01      -6.158e-01       2.969e-09           0.000          -0.000           1.000       5.793e-07         -0.0062
 378       2.340e-01      -6.158e-01       5.344e-09          -0.000          -0.000           1.000       1.704e-06         -0.0109
 379       2.224e-01      -6.158e-01      -3.684e-09           0.000           0.000           1.000       2.730e-06         -0.0162
 380       2.048e-01      -6.158e-01       2.155e-08          -0.000          -0.000           1.000       3.597e-06         -0.0221
 381       1.825e-01      -6.158e-01       3.597e-08           0.000           0.000           1.000       4.255e-06         -0.0290
 382       1.566e-01      -6.158e-01       3.404e-07           0.000           0.000           1.000       4.666e-06         -0.0374
 383       1.286e-01      -6.158e-01       9.808e-07           0.000          -0.000           1.000       4.806e-06         -0.0484
 384       1.002e-01      -6.158e-01      -1.320e-08          -0.000          -0.000           1.000       4.666e-06         -0.0656
 385       7.312e-02      -6.158e-01      -1.718e-06           0.000           0.000           1.000       4.255e-06         -0.0898
 386       4.879e-02      -6.158e-01       2.214e-06          -0.000          -0.000           1.000       3.597e-06         -0.1362
 387       2.870e-02      -6.158e-01      -2.639e-07          -0.000          -0.000           1.000       2.730e-06         -0.2163
 388       1.399e-02      -6.158e-01      -8.033e-07           0.000           0.000           1.000       1.704e-06         -0.3788
 389       5.528e-03      -6.158e-01      -4.782e-07           0.000           0.000           1.000       5.793e-07         -0.9007
Strip 31
 390       2.391e-01      -6.156e-01       2.970e-09           0.000          -0.000           1.000       7.972e-07         -0.0062
 391       2.340e-01      -6.156e-01       5.345e-09          -0.000          -0.000           1.000       2.345e-06         -0.0109
 392       2.224e-01      -6.156e-01      -3.685e-09           0.000           0.000           1.000       3.757e-06         -0.0162
 393       2.048e-01      -6.156e-01       2.155e-08          -0.000          -0.000           1.000       4.951e-06         -0.0222
 394       1.825e-01      -6.156e-01       3.597e-08           0.000           0.000           1.000       5.856e-06         -0.0291
 395       1.565e-01      -6.156e-01       3.405e-07           0.000           0.000           1.000       6.422e-06         -0.0376
 396       1.286e-01      -6.156e-01       9.810e-07           0.000          -0.000           1.000       6.614e-06         -0.0488
 397       1.002e-01      -6.156e-01      -1.320e-08          -0.000          -0.000           1.000       6.422e-06         -0.0660
 398       7.308e-02      -6.156e-01      -1.718e-06           0.000           0.000           1.000       5.856e-06         -0.0904
 399       4.875e-02      -6.156e-01       2.214e-06          -0.000          -0.000           1.000       4.951e-06         -0.1369
 400       2.865e-02      -6.156e-01      -2.640e-07          -0.000          -0.000           1.000       3.757e-06         -0.2172
 401       1.394e-02      -6.156e-01      -8.034e-07           0.000           0.000           1.000       2.345e-06         -0.3797
 402       5.479e-03      -6.156e-01      -4.783e-07           0.000           0.000           1.000       7.972e-07         -0.9060
Strip 32
 403       2.391e-01      -6.153e-01       2.970e-09           0.000          -0.000           1.000       1.002e-06         -0.0062
 404       2.340e-01      -6.153e-01       5.346e-09          -0.000          -0.000           1.000       2.947e-06         -0.0110
 405       2.224e-01      -6.153e-01      -3.686e-09           0.000           0.000           1.000       4.721e-06         -0.0164
 406       2.048e-01      -6.153e-01       2.156e-08          -0.000          -0.000           1.000       6.220e-06         -0.0224
 407       1.825e-01      -6.153e-01       3.598e-08           0.000           0.000           1.000       7.358e-06         -0.0294
 408       1.565e-01      -6.153e-01       3.405e-07           0.000           0.000           1.000       8.069e-06         -0.0379
 409       1.286e-01      -6.153e-01       9.813e-07           0.000          -0.000           1.000       8.310e-06         -0.0491
 410       1.002e-01      -6.153e-01      -1.321e-08          -0.000          -0.000           1.000       8.069e-06         -0.0665
 411       7.304e-02      -6.153e-01      -1.719e-06           0.000           0.000           1.000       7.358e-06         -0.0911
 412       4.870e-02      -6.153e-01       2.215e-06          -0.000          -0.000           1.000       6.220e-06         -0.1378
 413       2.859e-02      -6.153e-01      -2.641e-07          -0.000          -0.000           1.000       4.721e-06         -0.2182
 414       1.388e-02      -6.153e-01      -8.037e-07           0.000           0.000           1.000       2.947e-06         -0.3807
 415       5.414e-03      -6.153e-01      -4.784e-07           0.000           0.000           1.000       1.002e-06         -0.9130
Strip 33
 416       2.391e-01      -6.150e-01       2.971e-09           0.000           0.000           1.000       1.189e-06         -0.0063
 417       2.340e-01      -6.150e-01       5.348e-09          -0.000          -0.000           1.000       3.498e-06         -0.0111
 418       2.224e-01      -6.150e-01      -3.687e-09           0.000           0.000           1.000       5.604e-06         -0.0165
 419       2.048e-01      -6.150e-01       2.156e-08          -0.000          -0.000           1.000       7.385e-06         -0.0226
 420       1.824e-01      -6.150e-01       3.600e-08           0.000           0.000           1.000       8.736e-06         -0.0296
 421       1.565e-01      -6.150e-01       3.407e-07           0.000           0.000           1.000       9.579e-06         -0.0382
 422       1.285e-01      -6.150e-01       9.816e-07           0.000          -0.000           1.000       9.866e-06         -0.0496
 423       1.001e-01      -6.150e-01      -1.321e-08          -0.000          -0.000           1.000       9.579e-06         -0.0671
 424       7.298e-02      -6.150e-01      -1.719e-06           0.000           0.000           1.000       8.736e-06         -0.0919
 425       4.864e-02      -6.150e-01       2.216e-06          -0.000          -0.000           1.000       7.385e-06         -0.1389
 426       2.852e-02      -6.150e-01      -2.642e-07          -0.000          -0.000           1.000       5.604e-06         -0.2194
 427       1.380e-02      -6.150e-01      -8.039e-07           0.000           0.000           1.000       3.498e-06         -0.3818
 428       5.335e-03      -6.150e-01      -4.786e-07           0.000           0.000           1.000       1.189e-06         -0.9212
Strip 34
 429       2.391e-01      -6.146e-01       2.973e-09           0.000          -0.000           1.000       1.357e-06         -0.0063
 430       2.340e-01      -6.146e-01       5.350e-09          -0.000          -0.000           1.000       3.991e-06         -0.0112
 431       2.223e-01      -6.146e-01      -3.688e-09           0.000           0.000           1.000       6.393e-06         -0.0167
 432       2.048e-01      -6.146e-01       2.157e-08          -0.000          -0.000           1.000       8.424e-06         -0.0228
 433       1.824e-01      -6.146e-01       3.601e-08           0.000           0.000           1.000       9.965e-06         -0.0299
 434       1.565e-01      -6.146e-01       3.408e-07           0.000           0.000           1.000       1.093e-05         -0.0386
 435       1.285e-01      -6.146e-01       9.820e-07           0.000          -0.000           1.000       1.125e-05         -0.0501
 436       1.001e-01      -6.146e-01      -1.322e-08          -0.000          -0.000           1.000       1.093e-05         -0.0678
 437       7.291e-02      -6.146e-01      -1.720e-06           0.000           0.000           1.000       9.965e-06         -0.0929
 438       4.856e-02      -6.146e-01       2.217e-06          -0.000          -0.000           1.000       8.424e-06         -0.1400
 439       2.844e-02      -6.146e-01      -2.643e-07          -0.000          -0.000           1.000       6.393e-06         -0.2208
 440       1.371e-02      -6.146e-01      -8.043e-07           0.000           0.000           1.000       3.991e-06         -0.3832
 441       5.244e-03      -6.146e-01      -4.788e-07           0.000           0.000           1.000       1.357e-06         -0.9302
Strip 35
 442       2.391e-01      -6.142e-01       2.974e-09           0.000          -0.000           1.000       1.501e-06         -0.0064
 443       2.340e-01      -6.142e-01       5.353e-09          -0.000          -0.000           1.000       4.415e-06         -0.0113
 444       2.223e-01      -6.142e-01      -3.690e-09           0.000           0.000           1.000       7.073e-06         -0.0168
 445       2.048e-01      -6.142e-01       2.158e-08          -0.000          -0.000           1.000       9.320e-06         -0.0230
 446       1.824e-01      -6.142e-01       3.603e-08           0.000           0.000           1.000       1.103e-05         -0.0302
 447       1.564e-01      -6.142e-01       3.409e-07           0.000           0.000           1.000       1.209e-05         -0.0391
 448       1.284e-01      -6.142e-01       9.825e-07           0.000          -0.000           1.000       1.245e-05         -0.0507
 449       1.000e-01      -6.142e-01      -1.322e-08          -0.000          -0.000           1.000       1.209e-05         -0.0686
 450       7.284e-02      -6.142e-01      -1.721e-06           0.000           0.000           1.000       1.103e-05         -0.0939
 451       4.848e-02      -6.142e-01       2.218e-06          -0.000          -0.000           1.000       9.320e-06         -0.1413
 452       2.835e-02      -6.142e-01      -2.644e-07          -0.000          -0.000           1.000       7.073e-06         -0.2223
 453       1.362e-02      -6.142e-01      -8.046e-07           0.000           0.000           1.000       4.415e-06         -0.3849
 454       5.142e-03      -6.142e-01      -4.790e-07           0.000           0.000           1.000       1.501e-06         -0.9398
Strip 36
 455       2.391e-01      -6.138e-01       2.975e-09           0.000          -0.000           1.000       1.620e-06         -0.0064
 456       2.340e-01      -6.138e-01       5.355e-09          -0.000          -0.000           1.000       4.765e-06         -0.0114
 457       2.223e-01      -6.138e-01      -3.692e-09           0.000           0.000           1.000       7.633e-06         -0.0170
 458       2.048e-01      -6.138e-01       2.159e-08          -0.000          -0.000           1.000       1.006e-05         -0.0233
 459       1.824e-01      -6.138e-01       3.604e-08           0.000           0.000           1.000       1.190e-05         -0.0306
 460       1.564e-01      -6.138e-01       3.411e-07           0.000           0.000           1.000       1.305e-05         -0.0395
 461       1.284e-01      -6.138e-01       9.829e-07           0.000          -0.000           1.000       1.344e-05         -0.0513
 462       9.995e-02      -6.138e-01      -1.323e-08          -0.000          -0.000           1.000       1.305e-05         -0.0694
 463       7.276e-02      -6.138e-01      -1.722e-06           0.000           0.000           1.000       1.190e-05         -0.0950
 464       4.839e-02      -6.138e-01       2.219e-06          -0.000          -0.000           1.000       1.006e-05         -0.1427
 465       2.825e-02      -6.138e-01      -2.645e-07          -0.000          -0.000           1.000       7.633e-06         -0.2239
 466       1.351e-02      -6.138e-01      -8.050e-07           0.000           0.000           1.000       4.765e-06         -0.3870
 467       5.030e-03      -6.138e-01      -4.792e-07           0.000           0.000           1.000       1.620e-06         -0.9494
Strip 37
 468       2.391e-01      -6.133e-01       2.977e-09           0.000          -0.000           1.000       1.711e-06         -0.0065
 469       2.340e-01      -6.133e-01       5.358e-09          -0.000          -0.000           1.000       5.033e-06         -0.0115
 470       2.223e-01      -6.133e-01      -3.694e-09           0.000           0.000           1.000       8.063e-06         -0.0172
 471       2.048e-01      -6.133e-01       2.160e-08          -0.000          -0.000           1.000       1.062e-05         -0.0236
 472       1.823e-01      -6.133e-01       3.606e-08           0.000           0.000           1.000       1.257e-05         -0.0310
 473       1.563e-01      -6.133e-01       3.413e-07           0.000           0.000           1.000       1.378e-05         -0.0400
 474       1.283e-01      -6.133e-01       9.834e-07           0.000          -0.000           1.000       1.419e-05         -0.0520
 475       9.988e-02      -6.133e-01      -1.323e-08          -0.000          -0.000           1.000       1.378e-05         -0.0703
 476       7.268e-02      -6.133e-01      -1.722e-06           0.000           0.000           1.000       1.257e-05         -0.0962
 477       4.829e-02      -6.133e-01       2.220e-06          -0.000          -0.000           1.000       1.062e-05         -0.1442
 478       2.814e-02      -6.133e-01      -2.646e-07          -0.000          -0.000           1.000       8.063e-06         -0.2257
 479       1.339e-02      -6.133e-01      -8.054e-07           0.000           0.000           1.000       5.033e-06         -0.3894
 480       4.911e-03      -6.133e-01      -4.795e-07           0.000           0.000           1.000       1.711e-06         -0.9587
Strip 38
 481       2.391e-01      -6.128e-01       2.978e-09           0.000          -0.000           1.000       1.773e-06         -0.0066
 482       2.340e-01      -6.128e-01       5.361e-09          -0.000          -0.000           1.000       5.216e-06         -0.0116
[...]
1281       1.029e-01       6.231e-01      -1.295e-08          -0.000           0.000           1.000       1.731e-05         -0.0515
1282       7.622e-02       6.231e-01      -1.686e-06           0.000          -0.000           1.000       1.578e-05         -0.0702
1283       5.236e-02       6.231e-01       2.173e-06          -0.000           0.000           1.000       1.334e-05         -0.1100
1284       3.263e-02       6.231e-01      -2.590e-07          -0.000           0.000           1.000       1.013e-05         -0.1818
1285       1.820e-02       6.231e-01      -7.883e-07           0.000          -0.000           1.000       6.321e-06         -0.3309
1286       9.895e-03       6.231e-01      -4.693e-07           0.000          -0.000           1.000       2.149e-06         -0.8412
Strip 100
1287       2.392e-01       6.237e-01       2.909e-09           0.000          -0.000           1.000       1.348e-06         -0.0051
1288       2.341e-01       6.237e-01       5.236e-09          -0.000           0.000           1.000       3.967e-06         -0.0088
1289       2.227e-01       6.237e-01      -3.609e-09           0.000          -0.000           1.000       6.355e-06         -0.0128
1290       2.056e-01       6.237e-01       2.111e-08          -0.000           0.000           1.000       8.373e-06         -0.0173
1291       1.836e-01       6.237e-01       3.524e-08           0.000          -0.000           1.000       9.905e-06         -0.0226
1292       1.583e-01       6.237e-01       3.335e-07           0.000          -0.000           1.000       1.086e-05         -0.0290
1293       1.309e-01       6.237e-01       9.610e-07           0.000           0.000           1.000       1.119e-05         -0.0372
1294       1.031e-01       6.237e-01      -1.293e-08          -0.000           0.000           1.000       1.086e-05         -0.0502
1295       7.650e-02       6.237e-01      -1.683e-06           0.000          -0.000           1.000       9.905e-06         -0.0684
1296       5.267e-02       6.237e-01       2.169e-06          -0.000           0.000           1.000       8.373e-06         -0.1074
1297       3.298e-02       6.237e-01      -2.586e-07          -0.000           0.000           1.000       6.355e-06         -0.1784
1298       1.857e-02       6.237e-01      -7.870e-07           0.000          -0.000           1.000       3.967e-06         -0.3253
1299       1.028e-02       6.237e-01      -4.685e-07           0.000          -0.000           1.000       1.348e-06         -0.8373
Strip 101
1300       2.392e-01       6.239e-01       2.906e-09           0.000           0.000           1.000       4.595e-07         -0.0050
1301       2.341e-01       6.239e-01       5.231e-09          -0.000           0.000           1.000       1.352e-06         -0.0086
1302       2.227e-01       6.239e-01      -3.606e-09           0.000          -0.000           1.000       2.166e-06         -0.0126
1303       2.056e-01       6.239e-01       2.109e-08          -0.000           0.000           1.000       2.854e-06         -0.0170
1304       1.837e-01       6.239e-01       3.521e-08           0.000          -0.000           1.000       3.376e-06         -0.0222
1305       1.583e-01       6.239e-01       3.332e-07           0.000          -0.000           1.000       3.702e-06         -0.0284
1306       1.310e-01       6.239e-01       9.601e-07           0.000           0.000           1.000       3.812e-06         -0.0365
1307       1.032e-01       6.239e-01      -1.292e-08          -0.000           0.000           1.000       3.702e-06         -0.0491
1308       7.664e-02       6.239e-01      -1.682e-06           0.000          -0.000           1.000       3.376e-06         -0.0669
1309       5.283e-02       6.239e-01       2.167e-06          -0.000           0.000           1.000       2.854e-06         -0.1054
1310       3.316e-02       6.239e-01      -2.584e-07          -0.000           0.000           1.000       2.166e-06         -0.1757
1311       1.876e-02       6.239e-01      -7.863e-07           0.000          -0.000           1.000       1.352e-06         -0.3209
1312       1.048e-02       6.239e-01      -4.681e-07           0.000          -0.000           1.000       4.595e-07         -0.8328
Strip 102
1313       2.392e-01       6.250e-01       2.896e-09           0.000           0.000           1.000       6.720e-06         -0.0049
1314       2.342e-01       6.250e-01       5.213e-09          -0.000           0.000           1.000       1.977e-05         -0.0084
1315       2.228e-01       6.250e-01      -3.594e-09           0.000          -0.000           1.000       3.167e-05         -0.0123
1316       2.057e-01       6.250e-01       2.102e-08          -0.000           0.000           1.000       4.173e-05         -0.0166
1317       1.839e-01       6.250e-01       3.509e-08           0.000          -0.000           1.000       4.936e-05         -0.0216
1318       1.586e-01       6.250e-01       3.320e-07           0.000          -0.000           1.000       5.413e-05         -0.0277
1319       1.313e-01       6.250e-01       9.568e-07           0.000           0.000           1.000       5.575e-05         -0.0356
1320       1.037e-01       6.250e-01      -1.288e-08          -0.000           0.000           1.000       5.413e-05         -0.0479
1321       7.720e-02       6.250e-01      -1.676e-06           0.000          -0.000           1.000       4.936e-05         -0.0651
1322       5.348e-02       6.250e-01       2.160e-06          -0.000           0.000           1.000       4.173e-05         -0.1030
1323       3.387e-02       6.250e-01      -2.575e-07          -0.000           0.000           1.000       3.167e-05         -0.1728
1324       1.952e-02       6.250e-01      -7.836e-07           0.000          -0.000           1.000       1.977e-05         -0.3160
1325       1.127e-02       6.250e-01      -4.665e-07           0.000          -0.000           1.000       6.720e-06         -0.8287
Strip 103
1326       2.392e-01       6.267e-01       2.880e-09           0.000           0.000           1.000       4.892e-06         -0.0046
1327       2.342e-01       6.267e-01       5.184e-09          -0.000           0.000           1.000       1.439e-05         -0.0080
1328       2.229e-01       6.267e-01      -3.574e-09           0.000          -0.000           1.000       2.305e-05         -0.0116
1329       2.059e-01       6.267e-01       2.090e-08          -0.000           0.000           1.000       3.038e-05         -0.0156
1330       1.842e-01       6.267e-01       3.489e-08           0.000          -0.000           1.000       3.593e-05         -0.0203
1331       1.591e-01       6.267e-01       3.302e-07           0.000          -0.000           1.000       3.940e-05         -0.0259
1332       1.320e-01       6.267e-01       9.514e-07           0.000           0.000           1.000       4.058e-05         -0.0332
1333       1.044e-01       6.267e-01      -1.280e-08          -0.000           0.000           1.000       3.940e-05         -0.0446
1334       7.812e-02       6.267e-01      -1.666e-06           0.000          -0.000           1.000       3.593e-05         -0.0605
1335       5.452e-02       6.267e-01       2.148e-06          -0.000           0.000           1.000       3.038e-05         -0.0966
1336       3.503e-02       6.267e-01      -2.560e-07          -0.000           0.000           1.000       2.305e-05         -0.1654
1337       2.076e-02       6.267e-01      -7.792e-07           0.000          -0.000           1.000       1.439e-05         -0.3055
1338       1.255e-02       6.267e-01      -4.639e-07           0.000          -0.000           1.000       4.892e-06         -0.7952
Strip 104
1339       2.392e-01       6.277e-01       2.871e-09           0.000           0.000           1.000       1.785e-06         -0.0044
1340       2.342e-01       6.277e-01       5.167e-09          -0.000           0.000           1.000       5.250e-06         -0.0076
1341       2.229e-01       6.277e-01      -3.562e-09           0.000          -0.000           1.000       8.410e-06         -0.0110
1342       2.060e-01       6.277e-01       2.083e-08          -0.000           0.000           1.000       1.108e-05         -0.0148
1343       1.844e-01       6.277e-01       3.477e-08           0.000          -0.000           1.000       1.311e-05         -0.0192
1344       1.593e-01       6.277e-01       3.291e-07           0.000          -0.000           1.000       1.438e-05         -0.0245
1345       1.323e-01       6.277e-01       9.483e-07           0.000           0.000           1.000       1.481e-05         -0.0313
1346       1.049e-01       6.277e-01      -1.276e-08          -0.000           0.000           1.000       1.438e-05         -0.0420
1347       7.865e-02       6.277e-01      -1.661e-06           0.000          -0.000           1.000       1.311e-05         -0.0568
1348       5.513e-02       6.277e-01       2.141e-06          -0.000           0.000           1.000       1.108e-05         -0.0913
1349       3.570e-02       6.277e-01      -2.552e-07          -0.000           0.000           1.000       8.410e-06         -0.1592
1350       2.148e-02       6.277e-01      -7.767e-07           0.000          -0.000           1.000       5.250e-06         -0.3007
1351       1.330e-02       6.277e-01      -4.624e-07           0.000          -0.000           1.000       1.785e-06         -0.7564
Strip 105
1352       2.392e-01       6.294e-01       2.846e-09           0.000           0.000           1.000       9.338e-06         -0.0042
1353       2.343e-01       6.294e-01       5.122e-09          -0.000           0.000           1.000       2.747e-05         -0.0072
1354       2.231e-01       6.294e-01      -3.531e-09           0.000          -0.000           1.000       4.401e-05         -0.0103
1355       2.063e-01       6.294e-01       2.065e-08          -0.000           0.000           1.000       5.799e-05         -0.0139
1356       1.849e-01       6.294e-01       3.448e-08           0.000          -0.000           1.000       6.860e-05         -0.0180
1357       1.600e-01       6.294e-01       3.263e-07           0.000          -0.000           1.000       7.522e-05         -0.0230
1358       1.332e-01       6.294e-01       9.402e-07           0.000           0.000           1.000       7.747e-05         -0.0293
1359       1.060e-01       6.294e-01      -1.265e-08          -0.000           0.000           1.000       7.522e-05         -0.0392
1360       8.003e-02       6.294e-01      -1.647e-06           0.000          -0.000           1.000       6.860e-05         -0.0526
1361       5.672e-02       6.294e-01       2.122e-06          -0.000           0.000           1.000       5.799e-05         -0.0854
1362       3.745e-02       6.294e-01      -2.530e-07          -0.000           0.000           1.000       4.401e-05         -0.1519
1363       2.335e-02       6.294e-01      -7.700e-07           0.000          -0.000           1.000       2.747e-05         -0.2915
1364       1.524e-02       6.294e-01      -4.584e-07           0.000          -0.000           1.000       9.338e-06         -0.7340
Strip 106
1365       2.392e-01       6.314e-01       2.815e-09           0.000           0.000           1.000       3.825e-06         -0.0039
1366       2.343e-01       6.314e-01       5.066e-09          -0.000           0.000           1.000       1.125e-05         -0.0065
1367       2.233e-01       6.314e-01      -3.492e-09           0.000          -0.000           1.000       1.803e-05         -0.0093
1368       2.067e-01       6.314e-01       2.043e-08          -0.000           0.000           1.000       2.375e-05         -0.0125
1369       1.855e-01       6.314e-01       3.410e-08           0.000          -0.000           1.000       2.810e-05         -0.0162
1370       1.609e-01       6.314e-01       3.227e-07           0.000          -0.000           1.000       3.081e-05         -0.0206
1371       1.344e-01       6.314e-01       9.299e-07           0.000           0.000           1.000       3.174e-05         -0.0262
1372       1.075e-01       6.314e-01      -1.251e-08          -0.000           0.000           1.000       3.081e-05         -0.0349
1373       8.179e-02       6.314e-01      -1.629e-06           0.000          -0.000           1.000       2.810e-05         -0.0464
1374       5.873e-02       6.314e-01       2.099e-06          -0.000           0.000           1.000       2.375e-05         -0.0755
1375       3.968e-02       6.314e-01      -2.502e-07          -0.000           0.000           1.000       1.803e-05         -0.1398
1376       2.574e-02       6.314e-01      -7.615e-07           0.000          -0.000           1.000       1.125e-05         -0.2722
1377       1.772e-02       6.314e-01      -4.534e-07           0.000          -0.000           1.000       3.825e-06         -0.7046
Strip 107
1378       2.392e-01       6.334e-01       2.775e-09           0.000           0.000           1.000       9.103e-06         -0.0035
1379       2.344e-01       6.334e-01       4.994e-09          -0.000           0.000           1.000       2.678e-05         -0.0058
1380       2.235e-01       6.334e-01      -3.443e-09           0.000          -0.000           1.000       4.290e-05         -0.0083
1381       2.071e-01       6.334e-01       2.014e-08          -0.000           0.000           1.000       5.653e-05         -0.0111
1382       1.862e-01       6.334e-01       3.361e-08           0.000          -0.000           1.000       6.687e-05         -0.0143
1383       1.620e-01       6.334e-01       3.181e-07           0.000          -0.000           1.000       7.333e-05         -0.0181
1384       1.359e-01       6.334e-01       9.166e-07           0.000           0.000           1.000       7.552e-05         -0.0229
1385       1.094e-01       6.334e-01      -1.233e-08          -0.000           0.000           1.000       7.333e-05         -0.0304
1386       8.405e-02       6.334e-01      -1.605e-06           0.000          -0.000           1.000       6.687e-05         -0.0399
1387       6.132e-02       6.334e-01       2.069e-06          -0.000           0.000           1.000       5.653e-05         -0.0647
1388       4.254e-02       6.334e-01      -2.466e-07          -0.000           0.000           1.000       4.290e-05         -0.1258
1389       2.879e-02       6.334e-01      -7.507e-07           0.000          -0.000           1.000       2.678e-05         -0.2514
1390       2.089e-02       6.334e-01      -4.469e-07           0.000          -0.000           1.000       9.103e-06         -0.6760
Strip 108
1391       2.392e-01       6.354e-01       2.731e-09           0.000           0.000           1.000       3.711e-06         -0.0031
1392       2.345e-01       6.354e-01       4.915e-09          -0.000           0.000           1.000       1.092e-05         -0.0050
1393       2.238e-01       6.354e-01      -3.388e-09           0.000          -0.000           1.000       1.749e-05         -0.0070
1394       2.077e-01       6.354e-01       1.982e-08          -0.000           0.000           1.000       2.305e-05         -0.0093
1395       1.871e-01       6.354e-01       3.308e-08           0.000          -0.000           1.000       2.726e-05         -0.0120
1396       1.633e-01       6.354e-01       3.131e-07           0.000          -0.000           1.000       2.989e-05         -0.0151
1397       1.376e-01       6.354e-01       9.021e-07           0.000           0.000           1.000       3.079e-05         -0.0190
1398       1.115e-01       6.354e-01      -1.214e-08          -0.000           0.000           1.000       2.989e-05         -0.0250
1399       8.651e-02       6.354e-01      -1.580e-06           0.000          -0.000           1.000       2.726e-05         -0.0324
1400       6.414e-02       6.354e-01       2.036e-06          -0.000           0.000           1.000       2.305e-05         -0.0519
1401       4.566e-02       6.354e-01      -2.427e-07          -0.000           0.000           1.000       1.749e-05         -0.1119
1402       3.213e-02       6.354e-01      -7.388e-07           0.000          -0.000           1.000       1.092e-05         -0.2197
1403       2.435e-02       6.354e-01      -4.398e-07           0.000          -0.000           1.000       3.711e-06         -0.6123
Strip 109
1404       2.392e-01       6.374e-01       2.643e-09           0.000           0.000           1.000       8.671e-06         -0.0025
1405       2.347e-01       6.374e-01       4.756e-09          -0.000           0.000           1.000       2.551e-05         -0.0040
1406       2.243e-01       6.374e-01      -3.279e-09           0.000          -0.000           1.000       4.086e-05         -0.0056
1407       2.087e-01       6.374e-01       1.918e-08          -0.000           0.000           1.000       5.384e-05         -0.0074
1408       1.888e-01       6.374e-01       3.201e-08           0.000          -0.000           1.000       6.369e-05         -0.0096
1409       1.657e-01       6.374e-01       3.030e-07           0.000          -0.000           1.000       6.984e-05         -0.0120
1410       1.409e-01       6.374e-01       8.730e-07           0.000           0.000           1.000       7.193e-05         -0.0148
1411       1.156e-01       6.374e-01      -1.175e-08          -0.000           0.000           1.000       6.984e-05         -0.0192
1412       9.147e-02       6.374e-01      -1.529e-06           0.000          -0.001           1.000       6.369e-05         -0.0238
1413       6.982e-02       6.374e-01       1.971e-06          -0.000           0.001           1.000       5.384e-05         -0.0356
1414       5.193e-02       6.374e-01      -2.349e-07          -0.000           0.000           1.000       4.086e-05         -0.0819
1415       3.884e-02       6.374e-01      -7.150e-07           0.000          -0.000           1.000       2.551e-05         -0.2195
1416       3.131e-02       6.374e-01      -4.256e-07           0.000          -0.001           1.000       8.671e-06         -0.5303
Strip 110
1417       2.393e-01       6.394e-01       2.536e-09           0.000           0.000           1.000       3.447e-06         -0.0016
1418       2.349e-01       6.394e-01       4.565e-09          -0.000           0.000           1.000       1.014e-05         -0.0025
1419       2.249e-01       6.394e-01      -3.147e-09           0.000          -0.000           1.000       1.624e-05         -0.0034
1420       2.100e-01       6.394e-01       1.841e-08          -0.000           0.000           1.000       2.140e-05         -0.0045
1421       1.909e-01       6.394e-01       3.072e-08           0.000          -0.000           1.000       2.532e-05         -0.0058
1422       1.687e-01       6.394e-01       2.907e-07           0.000          -0.000           1.000       2.776e-05         -0.0072
1423       1.449e-01       6.394e-01       8.378e-07           0.000           0.000           1.000       2.860e-05         -0.0088
1424       1.206e-01       6.394e-01      -1.127e-08          -0.000           0.000           1.000       2.776e-05         -0.0112
1425       9.745e-02       6.394e-01      -1.467e-06           0.000          -0.001           1.000       2.532e-05         -0.0136
1426       7.667e-02       6.394e-01       1.891e-06          -0.000           0.001           1.000       2.140e-05         -0.0191
1427       5.951e-02       6.394e-01      -2.255e-07          -0.000           0.000           1.000       1.624e-05         -0.0350
1428       4.694e-02       6.394e-01      -6.862e-07           0.000          -0.000           1.000       1.014e-05         -0.1095
1429       3.972e-02       6.394e-01      -4.085e-07           0.000          -0.001           1.000       3.447e-06         -0.5346










