xflr5 v6.50

Plane Name
T1-44.0 m/s-VLM1
QInf  =   44.000000 m/s
Alpha =    9.500000
Beta  =    0.000°
Phi   =    0.000°
Ctrl  =    0.000
CL    =    0.702494
Cy    =    0.000000
Cd    =    0.039103     ICd   =    0.026689     PCd   =    0.012414
Cl   = -7.20762e-16
Cm   =   -0.168727
ICn   =   -0.000000     PCn   =   -0.000000 
XCP   =    0.058143     YCP   =    0.000000     ZCP   =   -0.000000  
XNP   =    0.000000
Bending =   22.253185

Main Wing
  y-span        Chord      Ai         Cl        PCd          ICd        CmGeom    CmAirf@chord/4    XTrtop    XTrBot      XCP       BM
   -0.6394     0.2025    -3.688    0.084437    0.007400    0.005433   -0.029251    0.008075     0.6609    0.6975    0.1545    0.0000
   -0.6374     0.2110    -3.661    0.135096    0.007315    0.008641   -0.041597    0.011233     0.6479    0.7065    0.1669    0.0000
   -0.6354     0.2180    -3.638    0.164084    0.007227    0.010424   -0.046027    0.011974     0.6402    0.7112    0.1771    0.0003
   -0.6334     0.2215    -3.615    0.190905    0.007200    0.012061   -0.051136    0.012912     0.6324    0.7168    0.1824    0.0006
   -0.6314     0.2247    -3.594    0.211759    0.007171    0.013297   -0.054433    0.013282     0.6259    0.7210    0.1873    0.0012
   -0.6294     0.2272    -3.574    0.231215    0.007147    0.014439   -0.057573    0.013586     0.6196    0.7252    0.1912    0.0020
   -0.6277     0.2292    -3.557    0.243217    0.007127    0.015110   -0.058972    0.013665     0.6147    0.7277    0.1938    0.0029
   -0.6267     0.2300    -3.547    0.254472    0.007122    0.015772   -0.061271    0.013817     0.6106    0.7304    0.1957    0.0035
   -0.6250     0.2313    -3.530    0.268327    0.007111    0.016552   -0.063641    0.013934     0.6054    0.7336    0.1981    0.0047
   -0.6239     0.2321    -3.520    0.272874    0.007102    0.016730   -0.064101    0.013913     0.6035    0.7345    0.1991    0.0056
   -0.6237     0.2323    -3.517    0.277588    0.007101    0.017054   -0.065086    0.013920     0.6018    0.7357    0.1999    0.0058
   -0.6231     0.2326    -3.512    0.282969    0.007098    0.017363   -0.066121    0.013911     0.5998    0.7370    0.2008    0.0063
   -0.6224     0.2332    -3.505    0.289166    0.007098    0.017709   -0.067190    0.013879     0.5967    0.7384    0.2020    0.0070
   -0.6215     0.2339    -3.496    0.295935    0.007097    0.018079   -0.068260    0.013819     0.5934    0.7400    0.2033    0.0079
   -0.6205     0.2346    -3.487    0.302725    0.007095    0.018443   -0.069219    0.013738     0.5899    0.7415    0.2046    0.0089
   -0.6200     0.2350    -3.481    0.302486    0.007090    0.017886   -0.069152    0.013708     0.5899    0.7413    0.2050    0.0096
   -0.6199     0.2350    -3.481    0.305607    0.007093    0.018560   -0.069532    0.013700     0.5885    0.7421    0.2052    0.0096
   -0.6198     0.2351    -3.479    0.307545    0.007095    0.018689   -0.069939    0.013691     0.5875    0.7426    0.2055    0.0098
   -0.6196     0.2352    -3.478    0.309644    0.007096    0.018810   -0.070371    0.013681     0.5865    0.7431    0.2058    0.0100
   -0.6193     0.2353    -3.475    0.312009    0.007097    0.018942   -0.070840    0.013670     0.5854    0.7436    0.2062    0.0103
   -0.6190     0.2355    -3.472    0.314658    0.007099    0.019087   -0.071347    0.013657     0.5841    0.7443    0.2066    0.0107
   -0.6186     0.2357    -3.468    0.317579    0.007100    0.019245   -0.071892    0.013641     0.5827    0.7450    0.2071    0.0112
   -0.6182     0.2359    -3.465    0.320739    0.007102    0.019415   -0.072469    0.013623     0.5811    0.7457    0.2075    0.0117
   -0.6178     0.2361    -3.460    0.324093    0.007103    0.019594   -0.073070    0.013601     0.5795    0.7465    0.2080    0.0123
   -0.6173     0.2364    -3.456    0.327585    0.007105    0.019779   -0.073684    0.013576     0.5778    0.7473    0.2086    0.0130
   -0.6168     0.2366    -3.451    0.331146    0.007106    0.019967   -0.074294    0.013550     0.5761    0.7482    0.2091    0.0137
   -0.6163     0.2369    -3.446    0.334632    0.007108    0.020148   -0.074868    0.013526     0.5744    0.7490    0.2096    0.0145
   -0.6160     0.2370    -3.443    0.335191    0.007107    0.019875   -0.075005    0.013518     0.5741    0.7491    0.2098    0.0149
   -0.6159     0.2370    -3.443    0.336877    0.007109    0.020257   -0.075270    0.013517     0.5733    0.7495    0.2099    0.0150
   -0.6158     0.2371    -3.441    0.338334    0.007111    0.020342   -0.075590    0.013517     0.5726    0.7499    0.2101    0.0152
   -0.6156     0.2371    -3.439    0.340090    0.007112    0.020438   -0.075974    0.013517     0.5718    0.7503    0.2103    0.0155
   -0.6153     0.2372    -3.437    0.342196    0.007114    0.020550   -0.076427    0.013519     0.5710    0.7509    0.2105    0.0159
   -0.6150     0.2372    -3.434    0.344652    0.007116    0.020680   -0.076949    0.013522     0.5700    0.7515    0.2108    0.0165
   -0.6146     0.2373    -3.431    0.347435    0.007118    0.020826   -0.077536    0.013525     0.5688    0.7523    0.2111    0.0171
   -0.6142     0.2374    -3.427    0.350511    0.007121    0.020986   -0.078181    0.013527     0.5676    0.7531    0.2114    0.0177
   -0.6138     0.2376    -3.422    0.353837    0.007123    0.021159   -0.078876    0.013528     0.5662    0.7540    0.2118    0.0185
   -0.6133     0.2377    -3.418    0.357365    0.007126    0.021342   -0.079612    0.013527     0.5648    0.7549    0.2121    0.0194
   -0.6128     0.2378    -3.413    0.361043    0.007129    0.021532   -0.080377    0.013523     0.5632    0.7559    0.2125    0.0203
   -0.6123     0.2379    -3.408    0.364782    0.007132    0.021724   -0.081153    0.013516     0.5617    0.7569    0.2129    0.0212
   -0.6119     0.2380    -3.405    0.367225    0.007134    0.021841   -0.081680    0.013509     0.5607    0.7575    0.2132    0.0219
   -0.6117     0.2381    -3.403    0.369702    0.007136    0.021980   -0.082205    0.013503     0.5597    0.7582    0.2135    0.0224
   -0.6111     0.2382    -3.398    0.373548    0.007139    0.022178   -0.083005    0.013489     0.5581    0.7592    0.2139    0.0234
   -0.6104     0.2384    -3.391    0.378736    0.007143    0.022440   -0.084070    0.013465     0.5560    0.7606    0.2144    0.0249
   -0.6095     0.2386    -3.383    0.385046    0.007148    0.022758   -0.085363    0.013428     0.5534    0.7623    0.2151    0.0268
   -0.6085     0.2389    -3.373    0.392159    0.007154    0.023114   -0.086819    0.013377     0.5504    0.7642    0.2159    0.0291
   -0.6077     0.2391    -3.366    0.398595    0.007166    0.023441   -0.088181    0.013326     0.5472    0.7659    0.2166    0.0309
   -0.6067     0.2393    -3.356    0.405845    0.007182    0.023802   -0.089655    0.013265     0.5433    0.7679    0.2173    0.0333
   -0.6050     0.2397    -3.340    0.417871    0.007208    0.024388   -0.092040    0.013163     0.5368    0.7711    0.2185    0.0378
   -0.6037     0.2400    -3.328    0.428190    0.007231    0.024900   -0.094200    0.013146     0.5312    0.7739    0.2193    0.0413
   -0.6027     0.2400    -3.318    0.438765    0.007257    0.025440   -0.096811    0.013179     0.5256    0.7769    0.2200    0.0442
   -0.6010     0.2400    -3.301    0.457250    0.007317    0.026374   -0.101331    0.013283     0.5128    0.7824    0.2209    0.0495
   -0.5772     0.2400    -3.141    0.496096    0.007476    0.027221   -0.110826    0.013506     0.4785    0.7947    0.2228    0.1288
   -0.4893     0.2400    -2.663    0.637178    0.011427    0.029641   -0.149604    0.010162     0.0715    0.8677    0.2341    0.9874
   -0.3269     0.2400    -2.126    0.746598    0.013237    0.027711   -0.181640    0.005555     0.0336    0.9452    0.2426    6.4033
   -0.1148     0.2400    -1.833    0.795589    0.014136    0.025461   -0.195898    0.003583     0.0284    0.9702    0.2455   22.2532
    0.1148     0.2400    -1.833    0.795589    0.014136    0.025461   -0.195898    0.003583     0.0284    0.9702    0.2455   22.2532
    0.3269     0.2400    -2.126    0.746598    0.013237    0.027711   -0.181640    0.005555     0.0336    0.9452    0.2426    6.4033
    0.4893     0.2400    -2.663    0.637178    0.011427    0.029641   -0.149604    0.010162     0.0715    0.8677    0.2341    0.9874
    0.5772     0.2400    -3.141    0.496096    0.007476    0.027221   -0.110826    0.013506     0.4785    0.7947    0.2228    0.1288
    0.6010     0.2400    -3.301    0.457250    0.007317    0.026374   -0.101331    0.013283     0.5128    0.7824    0.2209    0.0495
    0.6027     0.2400    -3.318    0.438765    0.007257    0.025440   -0.096811    0.013179     0.5256    0.7769    0.2200    0.0442
    0.6037     0.2400    -3.328    0.428190    0.007231    0.024900   -0.094200    0.013146     0.5312    0.7739    0.2193    0.0413
    0.6050     0.2397    -3.340    0.417871    0.007208    0.024388   -0.092040    0.013163     0.5368    0.7711    0.2185    0.0378
    0.6067     0.2393    -3.356    0.405845    0.007182    0.023802   -0.089655    0.013265     0.5433    0.7679    0.2173    0.0333
    0.6077     0.2391    -3.366    0.398595    0.007166    0.023441   -0.088181    0.013326     0.5472    0.7659    0.2166    0.0309
    0.6085     0.2389    -3.373    0.392159    0.007154    0.023114   -0.086819    0.013377     0.5504    0.7642    0.2159    0.0291
    0.6095     0.2386    -3.383    0.385046    0.007148    0.022758   -0.085363    0.013428     0.5534    0.7623    0.2151    0.0268
    0.6104     0.2384    -3.391    0.378736    0.007143    0.022440   -0.084070    0.013465     0.5560    0.7606    0.2144    0.0249
    0.6111     0.2382    -3.398    0.373548    0.007139    0.022178   -0.083005    0.013489     0.5581    0.7592    0.2139    0.0234
    0.6117     0.2381    -3.403    0.369702    0.007136    0.021980   -0.082205    0.013503     0.5597    0.7582    0.2135    0.0224
    0.6119     0.2380    -3.405    0.367225    0.007134    0.021841   -0.081680    0.013509     0.5607    0.7575    0.2132    0.0219
    0.6123     0.2379    -3.408    0.364782    0.007132    0.021724   -0.081153    0.013516     0.5617    0.7569    0.2129    0.0212
    0.6128     0.2378    -3.413    0.361043    0.007129    0.021532   -0.080377    0.013523     0.5632    0.7559    0.2125    0.0203
    0.6133     0.2377    -3.418    0.357365    0.007126    0.021342   -0.079612    0.013527     0.5648    0.7549    0.2121    0.0194
    0.6138     0.2376    -3.422    0.353837    0.007123    0.021159   -0.078876    0.013528     0.5662    0.7540    0.2118    0.0185
    0.6142     0.2374    -3.427    0.350511    0.007121    0.020986   -0.078181    0.013527     0.5676    0.7531    0.2114    0.0177
    0.6146     0.2373    -3.431    0.347435    0.007118    0.020826   -0.077536    0.013525     0.5688    0.7523    0.2111    0.0171
    0.6150     0.2372    -3.434    0.344652    0.007116    0.020680   -0.076949    0.013522     0.5700    0.7515    0.2108    0.0165
    0.6153     0.2372    -3.437    0.342196    0.007114    0.020550   -0.076427    0.013519     0.5710    0.7509    0.2105    0.0159
    0.6156     0.2371    -3.439    0.340090    0.007112    0.020438   -0.075974    0.013517     0.5718    0.7503    0.2103    0.0155
    0.6158     0.2371    -3.441    0.338334    0.007111    0.020342   -0.075590    0.013517     0.5726    0.7499    0.2101    0.0152
    0.6159     0.2370    -3.443    0.336877    0.007109    0.020257   -0.075270    0.013517     0.5733    0.7495    0.2099    0.0150
    0.6160     0.2370    -3.443    0.335191    0.007107    0.019875   -0.075005    0.013518     0.5741    0.7491    0.2098    0.0149
    0.6163     0.2369    -3.446    0.334632    0.007108    0.020148   -0.074868    0.013526     0.5744    0.7490    0.2096    0.0145
    0.6168     0.2366    -3.451    0.331146    0.007106    0.019967   -0.074294    0.013550     0.5761    0.7482    0.2091    0.0137
    0.6173     0.2364    -3.456    0.327585    0.007105    0.019779   -0.073684    0.013576     0.5778    0.7473    0.2086    0.0130
    0.6178     0.2361    -3.460    0.324093    0.007103    0.019594   -0.073070    0.013601     0.5795    0.7465    0.2080    0.0123
    0.6182     0.2359    -3.465    0.320739    0.007102    0.019415   -0.072469    0.013623     0.5811    0.7457    0.2075    0.0117
    0.6186     0.2357    -3.468    0.317579    0.007100    0.019245   -0.071892    0.013641     0.5827    0.7450    0.2071    0.0112
    0.6190     0.2355    -3.472    0.314658    0.007099    0.019087   -0.071347    0.013657     0.5841    0.7443    0.2066    0.0107
    0.6193     0.2353    -3.475    0.312009    0.007097    0.018942   -0.070840    0.013670     0.5854    0.7436    0.2062    0.0103
    0.6196     0.2352    -3.478    0.309644    0.007096    0.018810   -0.070371    0.013681     0.5865    0.7431    0.2058    0.0100
    0.6198     0.2351    -3.479    0.307545    0.007095    0.018689   -0.069939    0.013691     0.5875    0.7426    0.2055    0.0098
    0.6199     0.2350    -3.481    0.305607    0.007093    0.018560   -0.069532    0.013700     0.5885    0.7421    0.2052    0.0096
    0.6200     0.2350    -3.481    0.302486    0.007090    0.017886   -0.069152    0.013708     0.5899    0.7413    0.2050    0.0096
    0.6205     0.2346    -3.487    0.302725    0.007095    0.018443   -0.069219    0.013738     0.5899    0.7415    0.2046    0.0089
    0.6215     0.2339    -3.496    0.295935    0.007097    0.018079   -0.068260    0.013819     0.5934    0.7400    0.2033    0.0079
    0.6224     0.2332    -3.505    0.289166    0.007098    0.017709   -0.067190    0.013879     0.5967    0.7384    0.2020    0.0070
    0.6231     0.2326    -3.512    0.282969    0.007098    0.017363   -0.066121    0.013911     0.5998    0.7370    0.2008    0.0063
    0.6237     0.2323    -3.517    0.277588    0.007101    0.017054   -0.065086    0.013920     0.6018    0.7357    0.1999    0.0058
    0.6239     0.2321    -3.520    0.272874    0.007102    0.016730   -0.064101    0.013913     0.6035    0.7345    0.1991    0.0056
    0.6250     0.2313    -3.530    0.268327    0.007111    0.016552   -0.063641    0.013934     0.6054    0.7336    0.1981    0.0047
    0.6267     0.2300    -3.547    0.254472    0.007122    0.015772   -0.061271    0.013817     0.6106    0.7304    0.1957    0.0035
    0.6277     0.2292    -3.557    0.243217    0.007127    0.015110   -0.058972    0.013665     0.6147    0.7277    0.1938    0.0029
    0.6294     0.2272    -3.574    0.231215    0.007147    0.014439   -0.057573    0.013586     0.6196    0.7252    0.1912    0.0020
    0.6314     0.2247    -3.594    0.211759    0.007171    0.013297   -0.054433    0.013282     0.6259    0.7210    0.1873    0.0012
    0.6334     0.2215    -3.615    0.190905    0.007200    0.012061   -0.051136    0.012912     0.6324    0.7168    0.1824    0.0006
    0.6354     0.2180    -3.638    0.164084    0.007227    0.010424   -0.046027    0.011974     0.6402    0.7112    0.1771    0.0003
    0.6374     0.2110    -3.661    0.135096    0.007315    0.008641   -0.041597    0.011233     0.6479    0.7065    0.1669    0.0000
    0.6394     0.2025    -3.688    0.084437    0.007400    0.005433   -0.029251    0.008075     0.6609    0.6975    0.1545    0.0000


Main Wing Cp Coefficients
 Panel     CtrlPt.x        CtrlPt.y        CtrlPt.z       Nx      Ny       Nz        Area       Cp
Main WingCp Coefficients
Strip 1
   0       2.393e-01      -6.394e-01       2.536e-09           0.000          -0.000           1.000       3.447e-06          0.0062
   1       2.349e-01      -6.394e-01       4.565e-09          -0.000          -0.000           1.000       1.014e-05          0.0093
   2       2.249e-01      -6.394e-01      -3.147e-09           0.000           0.000           1.000       1.624e-05          0.0129
   3       2.100e-01      -6.394e-01       1.841e-08          -0.000          -0.000           1.000       2.140e-05          0.0170
   4       1.909e-01      -6.394e-01       3.072e-08           0.000           0.000           1.000       2.532e-05          0.0216
   5       1.687e-01      -6.394e-01       2.907e-07           0.000           0.000           1.000       2.776e-05          0.0271
   6       1.449e-01      -6.394e-01       8.378e-07           0.000          -0.000           1.000       2.860e-05          0.0335
   7       1.206e-01      -6.394e-01      -1.127e-08          -0.000          -0.000           1.000       2.776e-05          0.0407
   8       9.745e-02      -6.394e-01      -1.467e-06           0.000           0.001           1.000       2.532e-05          0.0514
   9       7.667e-02      -6.394e-01       1.891e-06          -0.000          -0.001           1.000       2.140e-05          0.0715
  10       5.951e-02      -6.394e-01      -2.255e-07          -0.000          -0.000           1.000       1.624e-05          0.1304
  11       4.694e-02      -6.394e-01      -6.862e-07           0.000           0.000           1.000       1.014e-05          0.4084
  12       3.972e-02      -6.394e-01      -4.085e-07           0.000           0.001           1.000       3.447e-06          1.9959
Strip 2
  13       2.392e-01      -6.374e-01       2.643e-09           0.000          -0.000           1.000       8.671e-06          0.0096
  14       2.347e-01      -6.374e-01       4.756e-09          -0.000          -0.000           1.000       2.551e-05          0.0150
  15       2.243e-01      -6.374e-01      -3.279e-09           0.000           0.000           1.000       4.086e-05          0.0210
  16       2.087e-01      -6.374e-01       1.918e-08          -0.000          -0.000           1.000       5.384e-05          0.0278
  17       1.888e-01      -6.374e-01       3.201e-08           0.000           0.000           1.000       6.369e-05          0.0356
  18       1.657e-01      -6.374e-01       3.030e-07           0.000           0.000           1.000       6.984e-05          0.0449
  19       1.409e-01      -6.374e-01       8.730e-07           0.000          -0.000           1.000       7.193e-05          0.0562
  20       1.156e-01      -6.374e-01      -1.175e-08          -0.000          -0.000           1.000       6.984e-05          0.0697
  21       9.147e-02      -6.374e-01      -1.529e-06           0.000           0.001           1.000       6.369e-05          0.0905
  22       6.982e-02      -6.374e-01       1.971e-06          -0.000          -0.001           1.000       5.384e-05          0.1331
  23       5.193e-02      -6.374e-01      -2.349e-07          -0.000          -0.000           1.000       4.086e-05          0.3057
  24       3.884e-02      -6.374e-01      -7.150e-07           0.000           0.000           1.000       2.551e-05          0.8196
  25       3.131e-02      -6.374e-01      -4.256e-07           0.000           0.001           1.000       8.671e-06          1.9800
Strip 3
  26       2.392e-01      -6.354e-01       2.731e-09           0.000          -0.000           1.000       3.711e-06          0.0115
  27       2.345e-01      -6.354e-01       4.915e-09          -0.000          -0.000           1.000       1.092e-05          0.0185
  28       2.238e-01      -6.354e-01      -3.388e-09           0.000           0.000           1.000       1.749e-05          0.0262
  29       2.077e-01      -6.354e-01       1.982e-08          -0.000          -0.000           1.000       2.305e-05          0.0347
  30       1.871e-01      -6.354e-01       3.308e-08           0.000           0.000           1.000       2.726e-05          0.0447
  31       1.633e-01      -6.354e-01       3.131e-07           0.000           0.000           1.000       2.989e-05          0.0568
  32       1.376e-01      -6.354e-01       9.021e-07           0.000          -0.000           1.000       3.079e-05          0.0719
  33       1.115e-01      -6.354e-01      -1.214e-08          -0.000          -0.000           1.000       2.989e-05          0.0912
  34       8.651e-02      -6.354e-01      -1.580e-06           0.000           0.000           1.000       2.726e-05          0.1228
  35       6.414e-02      -6.354e-01       2.036e-06          -0.000          -0.000           1.000       2.305e-05          0.1939
  36       4.566e-02      -6.354e-01      -2.427e-07          -0.000          -0.000           1.000       1.749e-05          0.4175
  37       3.213e-02      -6.354e-01      -7.388e-07           0.000           0.000           1.000       1.092e-05          0.8202
  38       2.435e-02      -6.354e-01      -4.398e-07           0.000           0.000           1.000       3.711e-06          2.2882
Strip 4
  39       2.392e-01      -6.334e-01       2.775e-09           0.000          -0.000           1.000       9.103e-06          0.0132
  40       2.344e-01      -6.334e-01       4.994e-09          -0.000          -0.000           1.000       2.678e-05          0.0218
  41       2.235e-01      -6.334e-01      -3.443e-09           0.000           0.000           1.000       4.290e-05          0.0310
  42       2.071e-01      -6.334e-01       2.014e-08          -0.000          -0.000           1.000       5.653e-05          0.0412
  43       1.862e-01      -6.334e-01       3.361e-08           0.000           0.000           1.000       6.687e-05          0.0533
  44       1.620e-01      -6.334e-01       3.181e-07           0.000           0.000           1.000       7.333e-05          0.0680
  45       1.359e-01      -6.334e-01       9.166e-07           0.000          -0.000           1.000       7.552e-05          0.0866
  46       1.094e-01      -6.334e-01      -1.233e-08          -0.000          -0.000           1.000       7.333e-05          0.1109
  47       8.405e-02      -6.334e-01      -1.605e-06           0.000           0.000           1.000       6.687e-05          0.1513
  48       6.132e-02      -6.334e-01       2.069e-06          -0.000          -0.000           1.000       5.653e-05          0.2415
  49       4.254e-02      -6.334e-01      -2.466e-07          -0.000          -0.000           1.000       4.290e-05          0.4693
  50       2.879e-02      -6.334e-01      -7.507e-07           0.000           0.000           1.000       2.678e-05          0.9384
  51       2.089e-02      -6.334e-01      -4.469e-07           0.000           0.000           1.000       9.103e-06          2.5266
Strip 5
  52       2.392e-01      -6.314e-01       2.815e-09           0.000          -0.000           1.000       3.825e-06          0.0146
  53       2.343e-01      -6.314e-01       5.066e-09          -0.000          -0.000           1.000       1.125e-05          0.0243
  54       2.233e-01      -6.314e-01      -3.492e-09           0.000           0.000           1.000       1.803e-05          0.0349
  55       2.067e-01      -6.314e-01       2.043e-08          -0.000          -0.000           1.000       2.375e-05          0.0466
  56       1.855e-01      -6.314e-01       3.410e-08           0.000           0.000           1.000       2.810e-05          0.0604
  57       1.609e-01      -6.314e-01       3.227e-07           0.000           0.000           1.000       3.081e-05          0.0773
  58       1.344e-01      -6.314e-01       9.299e-07           0.000          -0.000           1.000       3.174e-05          0.0989
  59       1.075e-01      -6.314e-01      -1.251e-08          -0.000          -0.000           1.000       3.081e-05          0.1275
  60       8.179e-02      -6.314e-01      -1.629e-06           0.000           0.000           1.000       2.810e-05          0.1759
  61       5.873e-02      -6.314e-01       2.099e-06          -0.000          -0.000           1.000       2.375e-05          0.2819
  62       3.968e-02      -6.314e-01      -2.502e-07          -0.000          -0.000           1.000       1.803e-05          0.5214
  63       2.574e-02      -6.314e-01      -7.615e-07           0.000           0.000           1.000       1.125e-05          1.0161
  64       1.772e-02      -6.314e-01      -4.534e-07           0.000           0.000           1.000       3.825e-06          2.6338
Strip 6
  65       2.392e-01      -6.294e-01       2.846e-09           0.000          -0.000           1.000       9.338e-06          0.0159
  66       2.343e-01      -6.294e-01       5.122e-09          -0.000          -0.000           1.000       2.747e-05          0.0268
  67       2.231e-01      -6.294e-01      -3.531e-09           0.000           0.000           1.000       4.401e-05          0.0386
  68       2.063e-01      -6.294e-01       2.065e-08          -0.000          -0.000           1.000       5.799e-05          0.0517
  69       1.849e-01      -6.294e-01       3.448e-08           0.000           0.000           1.000       6.860e-05          0.0671
  70       1.600e-01      -6.294e-01       3.263e-07           0.000           0.000           1.000       7.522e-05          0.0861
  71       1.332e-01      -6.294e-01       9.402e-07           0.000          -0.000           1.000       7.747e-05          0.1105
  72       1.060e-01      -6.294e-01      -1.265e-08          -0.000          -0.000           1.000       7.522e-05          0.1433
  73       8.003e-02      -6.294e-01      -1.647e-06           0.000           0.000           1.000       6.860e-05          0.1994
  74       5.672e-02      -6.294e-01       2.122e-06          -0.000          -0.000           1.000       5.799e-05          0.3186
  75       3.745e-02      -6.294e-01      -2.530e-07          -0.000          -0.000           1.000       4.401e-05          0.5666
  76       2.335e-02      -6.294e-01      -7.700e-07           0.000           0.000           1.000       2.747e-05          1.0881
  77       1.524e-02      -6.294e-01      -4.584e-07           0.000           0.000           1.000       9.338e-06          2.7436
Strip 7
  78       2.392e-01      -6.277e-01       2.871e-09           0.000          -0.000           1.000       1.785e-06          0.0167
  79       2.342e-01      -6.277e-01       5.167e-09          -0.000          -0.000           1.000       5.250e-06          0.0283
  80       2.229e-01      -6.277e-01      -3.562e-09           0.000           0.000           1.000       8.410e-06          0.0410
  81       2.060e-01      -6.277e-01       2.083e-08          -0.000          -0.000           1.000       1.108e-05          0.0551
  82       1.844e-01      -6.277e-01       3.477e-08           0.000           0.000           1.000       1.311e-05          0.0715
  83       1.593e-01      -6.277e-01       3.291e-07           0.000           0.000           1.000       1.438e-05          0.0919
  84       1.323e-01      -6.277e-01       9.483e-07           0.000          -0.000           1.000       1.481e-05          0.1182
  85       1.049e-01      -6.277e-01      -1.276e-08          -0.000          -0.000           1.000       1.438e-05          0.1538
  86       7.865e-02      -6.277e-01      -1.661e-06           0.000           0.000           1.000       1.311e-05          0.2149
  87       5.513e-02      -6.277e-01       2.141e-06          -0.000          -0.000           1.000       1.108e-05          0.3408
  88       3.570e-02      -6.277e-01      -2.552e-07          -0.000          -0.000           1.000       8.410e-06          0.5940
  89       2.148e-02      -6.277e-01      -7.767e-07           0.000           0.000           1.000       5.250e-06          1.1226
  90       1.330e-02      -6.277e-01      -4.624e-07           0.000           0.000           1.000       1.785e-06          2.8278
Strip 8
  91       2.392e-01      -6.267e-01       2.880e-09           0.000          -0.000           1.000       4.892e-06          0.0174
  92       2.342e-01      -6.267e-01       5.184e-09          -0.000          -0.000           1.000       1.439e-05          0.0297
  93       2.229e-01      -6.267e-01      -3.574e-09           0.000           0.000           1.000       2.305e-05          0.0432
  94       2.059e-01      -6.267e-01       2.090e-08          -0.000          -0.000           1.000       3.038e-05          0.0581
  95       1.842e-01      -6.267e-01       3.489e-08           0.000           0.000           1.000       3.593e-05          0.0756
  96       1.591e-01      -6.267e-01       3.302e-07           0.000           0.000           1.000       3.940e-05          0.0972
  97       1.320e-01      -6.267e-01       9.514e-07           0.000          -0.000           1.000       4.058e-05          0.1252
  98       1.044e-01      -6.267e-01      -1.280e-08          -0.000          -0.000           1.000       3.940e-05          0.1634
  99       7.812e-02      -6.267e-01      -1.666e-06           0.000           0.000           1.000       3.593e-05          0.2288
 100       5.452e-02      -6.267e-01       2.148e-06          -0.000          -0.000           1.000       3.038e-05          0.3603
 101       3.503e-02      -6.267e-01      -2.560e-07          -0.000          -0.000           1.000       2.305e-05          0.6171
 102       2.076e-02      -6.267e-01      -7.792e-07           0.000           0.000           1.000       1.439e-05          1.1401
 103       1.255e-02      -6.267e-01      -4.639e-07           0.000           0.000           1.000       4.892e-06          2.9729
Strip 9
 104       2.392e-01      -6.250e-01       2.896e-09           0.000          -0.000           1.000       6.720e-06          0.0184
 105       2.342e-01      -6.250e-01       5.213e-09          -0.000          -0.000           1.000       1.977e-05          0.0314
 106       2.228e-01      -6.250e-01      -3.594e-09           0.000           0.000           1.000       3.167e-05          0.0459
 107       2.057e-01      -6.250e-01       2.102e-08          -0.000          -0.000           1.000       4.173e-05          0.0619
 108       1.839e-01      -6.250e-01       3.509e-08           0.000           0.000           1.000       4.936e-05          0.0807
 109       1.586e-01      -6.250e-01       3.320e-07           0.000           0.000           1.000       5.413e-05          0.1039
 110       1.313e-01      -6.250e-01       9.568e-07           0.000          -0.000           1.000       5.575e-05          0.1341
 111       1.037e-01      -6.250e-01      -1.288e-08          -0.000          -0.000           1.000       5.413e-05          0.1755
 112       7.720e-02      -6.250e-01      -1.676e-06           0.000           0.000           1.000       4.936e-05          0.2464
 113       5.348e-02      -6.250e-01       2.160e-06          -0.000          -0.000           1.000       4.173e-05          0.3842
 114       3.387e-02      -6.250e-01      -2.575e-07          -0.000          -0.000           1.000       3.167e-05          0.6444
 115       1.952e-02      -6.250e-01      -7.836e-07           0.000           0.000           1.000       1.977e-05          1.1794
 116       1.127e-02      -6.250e-01      -4.665e-07           0.000           0.000           1.000       6.720e-06          3.0981
Strip 10
 117       2.392e-01      -6.239e-01       2.906e-09           0.000          -0.000           1.000       4.595e-07          0.0187
 118       2.341e-01      -6.239e-01       5.231e-09          -0.000          -0.000           1.000       1.352e-06          0.0321
 119       2.227e-01      -6.239e-01      -3.606e-09           0.000           0.000           1.000       2.166e-06          0.0469
 120       2.056e-01      -6.239e-01       2.109e-08          -0.000          -0.000           1.000       2.854e-06          0.0633
 121       1.837e-01      -6.239e-01       3.521e-08           0.000           0.000           1.000       3.376e-06          0.0826
 122       1.583e-01      -6.239e-01       3.332e-07           0.000           0.000           1.000       3.702e-06          0.1064
 123       1.310e-01      -6.239e-01       9.601e-07           0.000          -0.000           1.000       3.812e-06          0.1375
 124       1.032e-01      -6.239e-01      -1.292e-08          -0.000          -0.000           1.000       3.702e-06          0.1801
 125       7.664e-02      -6.239e-01      -1.682e-06           0.000           0.000           1.000       3.376e-06          0.2530
 126       5.283e-02      -6.239e-01       2.167e-06          -0.000          -0.000           1.000       2.854e-06          0.3931
 127       3.316e-02      -6.239e-01      -2.584e-07          -0.000          -0.000           1.000       2.166e-06          0.6556
 128       1.876e-02      -6.239e-01      -7.863e-07           0.000           0.000           1.000       1.352e-06          1.1977
 129       1.048e-02      -6.239e-01      -4.681e-07           0.000           0.000           1.000       4.595e-07          3.1135
Strip 11
 130       2.392e-01      -6.237e-01       2.909e-09           0.000           0.000           1.000       1.348e-06          0.0190
 131       2.341e-01      -6.237e-01       5.236e-09          -0.000          -0.000           1.000       3.967e-06          0.0326
 132       2.227e-01      -6.237e-01      -3.609e-09           0.000           0.000           1.000       6.355e-06          0.0478
 133       2.056e-01      -6.237e-01       2.111e-08          -0.000          -0.000           1.000       8.373e-06          0.0646
 134       1.836e-01      -6.237e-01       3.524e-08           0.000           0.000           1.000       9.905e-06          0.0842
 135       1.583e-01      -6.237e-01       3.335e-07           0.000           0.000           1.000       1.086e-05          0.1086
 136       1.309e-01      -6.237e-01       9.610e-07           0.000          -0.000           1.000       1.119e-05          0.1403
 137       1.031e-01      -6.237e-01      -1.293e-08          -0.000          -0.000           1.000       1.086e-05          0.1840
 138       7.650e-02      -6.237e-01      -1.683e-06           0.000           0.000           1.000       9.905e-06          0.2587
 139       5.267e-02      -6.237e-01       2.169e-06          -0.000          -0.000           1.000       8.373e-06          0.4008
 140       3.298e-02      -6.237e-01      -2.586e-07          -0.000          -0.000           1.000       6.355e-06          0.6656
 141       1.857e-02      -6.237e-01      -7.870e-07           0.000           0.000           1.000       3.967e-06          1.2143
 142       1.028e-02      -6.237e-01      -4.685e-07           0.000           0.000           1.000       1.348e-06          3.1301
Strip 12
 143       2.392e-01      -6.231e-01       2.914e-09           0.000          -0.000           1.000       2.149e-06          0.0194
 144       2.341e-01      -6.231e-01       5.244e-09          -0.000          -0.000           1.000       6.321e-06          0.0333
 145       2.227e-01      -6.231e-01      -3.615e-09           0.000           0.000           1.000       1.013e-05          0.0489
 146       2.055e-01      -6.231e-01       2.115e-08          -0.000          -0.000           1.000       1.334e-05          0.0661
 147       1.835e-01      -6.231e-01       3.530e-08           0.000           0.000           1.000       1.578e-05          0.0862
 148       1.581e-01      -6.231e-01       3.340e-07           0.000           0.000           1.000       1.731e-05          0.1113
 149       1.307e-01      -6.231e-01       9.626e-07           0.000          -0.000           1.000       1.783e-05          0.1439
 150       1.029e-01      -6.231e-01      -1.295e-08          -0.000          -0.000           1.000       1.731e-05          0.1889
 151       7.622e-02      -6.231e-01      -1.686e-06           0.000           0.000           1.000       1.578e-05          0.2657
 152       5.236e-02      -6.231e-01       2.173e-06          -0.000          -0.000           1.000       1.334e-05          0.4104
 153       3.263e-02      -6.231e-01      -2.590e-07          -0.000          -0.000           1.000       1.013e-05          0.6782
 154       1.820e-02      -6.231e-01      -7.883e-07           0.000           0.000           1.000       6.321e-06          1.2351
 155       9.895e-03      -6.231e-01      -4.693e-07           0.000           0.000           1.000       2.149e-06          3.1450
Strip 13
 156       2.392e-01      -6.224e-01       2.921e-09           0.000          -0.000           1.000       2.807e-06          0.0198
 157       2.341e-01      -6.224e-01       5.257e-09          -0.000          -0.000           1.000       8.257e-06          0.0341
 158       2.227e-01      -6.224e-01      -3.624e-09           0.000           0.000           1.000       1.323e-05          0.0502
 159       2.054e-01      -6.224e-01       2.120e-08          -0.000          -0.000           1.000       1.743e-05          0.0679
 160       1.834e-01      -6.224e-01       3.538e-08           0.000           0.000           1.000       2.062e-05          0.0886
 161       1.579e-01      -6.224e-01       3.348e-07           0.000           0.000           1.000       2.261e-05          0.1144
 162       1.304e-01      -6.224e-01       9.648e-07           0.000          -0.000           1.000       2.329e-05          0.1481
 163       1.025e-01      -6.224e-01      -1.298e-08          -0.000          -0.000           1.000       2.261e-05          0.1946
 164       7.584e-02      -6.224e-01      -1.690e-06           0.000           0.000           1.000       2.062e-05          0.2739
 165       5.191e-02      -6.224e-01       2.178e-06          -0.000          -0.000           1.000       1.743e-05          0.4216
 166       3.214e-02      -6.224e-01      -2.596e-07          -0.000          -0.000           1.000       1.323e-05          0.6933
 167       1.767e-02      -6.224e-01      -7.902e-07           0.000           0.000           1.000       8.257e-06          1.2598
 168       9.352e-03      -6.224e-01      -4.704e-07           0.000           0.000           1.000       2.807e-06          3.1536
Strip 14
 169       2.392e-01      -6.215e-01       2.929e-09           0.000          -0.000           1.000       3.278e-06          0.0202
 170       2.341e-01      -6.215e-01       5.272e-09          -0.000          -0.000           1.000       9.643e-06          0.0350
 171       2.226e-01      -6.215e-01      -3.634e-09           0.000           0.000           1.000       1.545e-05          0.0515
 172       2.053e-01      -6.215e-01       2.126e-08          -0.000          -0.000           1.000       2.036e-05          0.0698
 173       1.833e-01      -6.215e-01       3.548e-08           0.000           0.000           1.000       2.408e-05          0.0912
 174       1.577e-01      -6.215e-01       3.358e-07           0.000           0.000           1.000       2.640e-05          0.1179
 175       1.301e-01      -6.215e-01       9.676e-07           0.000          -0.000           1.000       2.719e-05          0.1527
 176       1.021e-01      -6.215e-01      -1.302e-08          -0.000          -0.000           1.000       2.640e-05          0.2010
 177       7.536e-02      -6.215e-01      -1.695e-06           0.000           0.000           1.000       2.408e-05          0.2830
 178       5.137e-02      -6.215e-01       2.184e-06          -0.000          -0.000           1.000       2.036e-05          0.4341
 179       3.154e-02      -6.215e-01      -2.604e-07          -0.000          -0.000           1.000       1.545e-05          0.7104
 180       1.703e-02      -6.215e-01      -7.925e-07           0.000           0.000           1.000       9.643e-06          1.2879
 181       8.687e-03      -6.215e-01      -4.718e-07           0.000           0.000           1.000       3.278e-06          3.1530
Strip 15
 182       2.391e-01      -6.205e-01       2.938e-09           0.000          -0.000           1.000       3.529e-06          0.0207
 183       2.341e-01      -6.205e-01       5.289e-09          -0.000          -0.000           1.000       1.038e-05          0.0359
 184       2.225e-01      -6.205e-01      -3.646e-09           0.000           0.000           1.000       1.663e-05          0.0530
 185       2.052e-01      -6.205e-01       2.132e-08          -0.000          -0.000           1.000       2.191e-05          0.0718
 186       1.831e-01      -6.205e-01       3.560e-08           0.000           0.000           1.000       2.592e-05          0.0939
 187       1.574e-01      -6.205e-01       3.369e-07           0.000           0.000           1.000       2.843e-05          0.1214
 188       1.298e-01      -6.205e-01       9.707e-07           0.000          -0.000           1.000       2.928e-05          0.1574
 189       1.017e-01      -6.205e-01      -1.306e-08          -0.000          -0.000           1.000       2.843e-05          0.2074
 190       7.484e-02      -6.205e-01      -1.700e-06           0.000           0.000           1.000       2.592e-05          0.2922
 191       5.076e-02      -6.205e-01       2.191e-06          -0.000          -0.000           1.000       2.191e-05          0.4467
 192       3.087e-02      -6.205e-01      -2.612e-07          -0.000          -0.000           1.000       1.663e-05          0.7279
 193       1.632e-02      -6.205e-01      -7.950e-07           0.000           0.000           1.000       1.038e-05          1.3161
 194       7.945e-03      -6.205e-01      -4.733e-07           0.000           0.000           1.000       3.529e-06          3.1473
Strip 16
 195       2.391e-01      -6.200e-01       2.943e-09           0.000          -0.000           1.000       1.168e-07          0.0208
 196       2.341e-01      -6.200e-01       5.298e-09          -0.000          -0.000           1.000       3.437e-07          0.0361
 197       2.225e-01      -6.200e-01      -3.652e-09           0.000           0.000           1.000       5.507e-07          0.0533
 198       2.051e-01      -6.200e-01       2.136e-08          -0.000          -0.000           1.000       7.256e-07          0.0723
 199       1.830e-01      -6.200e-01       3.566e-08           0.000           0.000           1.000       8.583e-07          0.0946
 200       1.573e-01      -6.200e-01       3.374e-07           0.000           0.000           1.000       9.412e-07          0.1222
 201       1.296e-01      -6.200e-01       9.724e-07           0.000          -0.000           1.000       9.694e-07          0.1586
 202       1.015e-01      -6.200e-01      -1.309e-08          -0.000          -0.000           1.000       9.412e-07          0.2090
 203       7.456e-02      -6.200e-01      -1.703e-06           0.000           0.000           1.000       8.583e-07          0.2945
 204       5.044e-02      -6.200e-01       2.195e-06          -0.000          -0.000           1.000       7.256e-07          0.4496
 205       3.052e-02      -6.200e-01      -2.617e-07          -0.000          -0.000           1.000       5.507e-07          0.7318
 206       1.594e-02      -6.200e-01      -7.963e-07           0.000           0.000           1.000       3.437e-07          1.3204
 207       7.552e-03      -6.200e-01      -4.741e-07           0.000           0.000           1.000       1.168e-07          3.1511
Strip 17
 208       2.391e-01      -6.199e-01       2.944e-09           0.000           0.000           1.000       3.486e-07          0.0209
 209       2.341e-01      -6.199e-01       5.299e-09          -0.000          -0.000           1.000       1.025e-06          0.0363
 210       2.225e-01      -6.199e-01      -3.653e-09           0.000           0.000           1.000       1.643e-06          0.0536
 211       2.051e-01      -6.199e-01       2.136e-08          -0.000          -0.000           1.000       2.165e-06          0.0727
 212       1.830e-01      -6.199e-01       3.566e-08           0.000           0.000           1.000       2.561e-06          0.0952
 213       1.573e-01      -6.199e-01       3.375e-07           0.000           0.000           1.000       2.808e-06          0.1230
 214       1.296e-01      -6.199e-01       9.725e-07           0.000          -0.000           1.000       2.892e-06          0.1596
 215       1.014e-01      -6.199e-01      -1.309e-08          -0.000          -0.000           1.000       2.808e-06          0.2104
 216       7.453e-02      -6.199e-01      -1.703e-06           0.000           0.000           1.000       2.561e-06          0.2965
 217       5.042e-02      -6.199e-01       2.195e-06          -0.000          -0.000           1.000       2.165e-06          0.4524
 218       3.049e-02      -6.199e-01      -2.617e-07          -0.000          -0.000           1.000       1.643e-06          0.7355
 219       1.591e-02      -6.199e-01      -7.965e-07           0.000           0.000           1.000       1.025e-06          1.3250
 220       7.519e-03      -6.199e-01      -4.742e-07           0.000           0.000           1.000       3.486e-07          3.1583
Strip 18
 221       2.391e-01      -6.198e-01       2.945e-09           0.000          -0.000           1.000       5.745e-07          0.0211
 222       2.341e-01      -6.198e-01       5.300e-09          -0.000          -0.000           1.000       1.690e-06          0.0365
 223       2.225e-01      -6.198e-01      -3.654e-09           0.000           0.000           1.000       2.708e-06          0.0540
 224       2.051e-01      -6.198e-01       2.137e-08          -0.000          -0.000           1.000       3.568e-06          0.0733
 225       1.830e-01      -6.198e-01       3.567e-08           0.000           0.000           1.000       4.220e-06          0.0959
 226       1.573e-01      -6.198e-01       3.376e-07           0.000           0.000           1.000       4.628e-06          0.1240
 227       1.295e-01      -6.198e-01       9.728e-07           0.000          -0.000           1.000       4.766e-06          0.1608
 228       1.014e-01      -6.198e-01      -1.309e-08          -0.000          -0.000           1.000       4.628e-06          0.2121
 229       7.449e-02      -6.198e-01      -1.704e-06           0.000           0.000           1.000       4.220e-06          0.2989
 230       5.036e-02      -6.198e-01       2.196e-06          -0.000          -0.000           1.000       3.568e-06          0.4556
 231       3.043e-02      -6.198e-01      -2.618e-07          -0.000          -0.000           1.000       2.708e-06          0.7398
 232       1.584e-02      -6.198e-01      -7.967e-07           0.000           0.000           1.000       1.690e-06          1.3296
 233       7.452e-03      -6.198e-01      -4.743e-07           0.000           0.000           1.000       5.745e-07          3.1689
Strip 19
 234       2.391e-01      -6.196e-01       2.946e-09           0.000          -0.000           1.000       7.908e-07          0.0212
 235       2.341e-01      -6.196e-01       5.302e-09          -0.000          -0.000           1.000       2.327e-06          0.0368
 236       2.225e-01      -6.196e-01      -3.655e-09           0.000           0.000           1.000       3.727e-06          0.0544
 237       2.051e-01      -6.196e-01       2.138e-08          -0.000          -0.000           1.000       4.911e-06          0.0739
 238       1.829e-01      -6.196e-01       3.569e-08           0.000           0.000           1.000       5.809e-06          0.0967
 239       1.572e-01      -6.196e-01       3.377e-07           0.000           0.000           1.000       6.370e-06          0.1250
 240       1.295e-01      -6.196e-01       9.732e-07           0.000          -0.000           1.000       6.561e-06          0.1623
 241       1.013e-01      -6.196e-01      -1.310e-08          -0.000          -0.000           1.000       6.370e-06          0.2141
 242       7.442e-02      -6.196e-01      -1.704e-06           0.000           0.000           1.000       5.809e-06          0.3016
 243       5.028e-02      -6.196e-01       2.197e-06          -0.000          -0.000           1.000       4.911e-06          0.4592
 244       3.034e-02      -6.196e-01      -2.619e-07          -0.000          -0.000           1.000       3.727e-06          0.7446
 245       1.575e-02      -6.196e-01      -7.970e-07           0.000           0.000           1.000       2.327e-06          1.3342
 246       7.353e-03      -6.196e-01      -4.745e-07           0.000           0.000           1.000       7.908e-07          3.1836
Strip 20
 247       2.391e-01      -6.193e-01       2.948e-09           0.000          -0.000           1.000       9.939e-07          0.0214
 248       2.341e-01      -6.193e-01       5.305e-09          -0.000          -0.000           1.000       2.924e-06          0.0371
 249       2.225e-01      -6.193e-01      -3.657e-09           0.000           0.000           1.000       4.684e-06          0.0549
 250       2.051e-01      -6.193e-01       2.139e-08          -0.000          -0.000           1.000       6.172e-06          0.0745
 251       1.829e-01      -6.193e-01       3.571e-08           0.000           0.000           1.000       7.301e-06          0.0976
 252       1.572e-01      -6.193e-01       3.379e-07           0.000           0.000           1.000       8.006e-06          0.1262
 253       1.294e-01      -6.193e-01       9.737e-07           0.000          -0.000           1.000       8.246e-06          0.1639
 254       1.013e-01      -6.193e-01      -1.310e-08          -0.000          -0.000           1.000       8.006e-06          0.2163
 255       7.432e-02      -6.193e-01      -1.705e-06           0.000           0.000           1.000       7.301e-06          0.3047
 256       5.018e-02      -6.193e-01       2.198e-06          -0.000          -0.000           1.000       6.172e-06          0.4633
 257       3.022e-02      -6.193e-01      -2.620e-07          -0.000          -0.000           1.000       4.684e-06          0.7499
 258       1.562e-02      -6.193e-01      -7.975e-07           0.000           0.000           1.000       2.924e-06          1.3390
 259       7.224e-03      -6.193e-01      -4.748e-07           0.000           0.000           1.000       9.939e-07          3.2023
Strip 21
 260       2.391e-01      -6.190e-01       2.950e-09           0.000          -0.000           1.000       1.180e-06          0.0215
 261       2.341e-01      -6.190e-01       5.309e-09          -0.000          -0.000           1.000       3.473e-06          0.0374
 262       2.225e-01      -6.190e-01      -3.660e-09           0.000           0.000           1.000       5.563e-06          0.0554
 263       2.051e-01      -6.190e-01       2.141e-08          -0.000          -0.000           1.000       7.330e-06          0.0753
 264       1.829e-01      -6.190e-01       3.573e-08           0.000           0.000           1.000       8.671e-06          0.0986
 265       1.571e-01      -6.190e-01       3.381e-07           0.000           0.000           1.000       9.508e-06          0.1276
 266       1.293e-01      -6.190e-01       9.744e-07           0.000          -0.000           1.000       9.793e-06          0.1657
 267       1.012e-01      -6.190e-01      -1.311e-08          -0.000          -0.000           1.000       9.508e-06          0.2188
 268       7.421e-02      -6.190e-01      -1.707e-06           0.000           0.000           1.000       8.671e-06          0.3082
 269       5.005e-02      -6.190e-01       2.199e-06          -0.000          -0.000           1.000       7.330e-06          0.4679
 270       3.008e-02      -6.190e-01      -2.622e-07          -0.000          -0.000           1.000       5.563e-06          0.7559
 271       1.547e-02      -6.190e-01      -7.980e-07           0.000           0.000           1.000       3.473e-06          1.3444
 272       7.067e-03      -6.190e-01      -4.751e-07           0.000           0.000           1.000       1.180e-06          3.2236
Strip 22
 273       2.391e-01      -6.186e-01       2.952e-09           0.000          -0.000           1.000       1.347e-06          0.0217
 274       2.341e-01      -6.186e-01       5.313e-09          -0.000          -0.000           1.000       3.963e-06          0.0378
 275       2.225e-01      -6.186e-01      -3.663e-09           0.000           0.000           1.000       6.348e-06          0.0560
 276       2.050e-01      -6.186e-01       2.142e-08          -0.000          -0.000           1.000       8.365e-06          0.0762
 277       1.828e-01      -6.186e-01       3.576e-08           0.000           0.000           1.000       9.895e-06          0.0998
 278       1.570e-01      -6.186e-01       3.384e-07           0.000           0.000           1.000       1.085e-05          0.1291
 279       1.293e-01      -6.186e-01       9.752e-07           0.000          -0.000           1.000       1.118e-05          0.1677
 280       1.011e-01      -6.186e-01      -1.312e-08          -0.000          -0.000           1.000       1.085e-05          0.2215
 281       7.408e-02      -6.186e-01      -1.708e-06           0.000           0.000           1.000       9.895e-06          0.3120
 282       4.990e-02      -6.186e-01       2.201e-06          -0.000          -0.000           1.000       8.365e-06          0.4730
 283       2.992e-02      -6.186e-01      -2.624e-07          -0.000          -0.000           1.000       6.348e-06          0.7623
 284       1.530e-02      -6.186e-01      -7.986e-07           0.000           0.000           1.000       3.963e-06          1.3510
 285       6.884e-03      -6.186e-01      -4.755e-07           0.000           0.000           1.000       1.347e-06          3.2457
Strip 23
 286       2.391e-01      -6.182e-01       2.954e-09           0.000          -0.000           1.000       1.491e-06          0.0219
 287       2.341e-01      -6.182e-01       5.318e-09          -0.000          -0.000           1.000       4.386e-06          0.0382
 288       2.225e-01      -6.182e-01      -3.666e-09           0.000           0.000           1.000       7.027e-06          0.0567
 289       2.050e-01      -6.182e-01       2.144e-08          -0.000          -0.000           1.000       9.259e-06          0.0771
 290       1.828e-01      -6.182e-01       3.579e-08           0.000           0.000           1.000       1.095e-05          0.1010
 291       1.570e-01      -6.182e-01       3.387e-07           0.000           0.000           1.000       1.201e-05          0.1308
 292       1.292e-01      -6.182e-01       9.760e-07           0.000          -0.000           1.000       1.237e-05          0.1699
 293       1.009e-01      -6.182e-01      -1.313e-08          -0.000          -0.000           1.000       1.201e-05          0.2245
 294       7.394e-02      -6.182e-01      -1.709e-06           0.000           0.000           1.000       1.095e-05          0.3161
 295       4.973e-02      -6.182e-01       2.203e-06          -0.000          -0.000           1.000       9.259e-06          0.4784
 296       2.973e-02      -6.182e-01      -2.626e-07          -0.000          -0.000           1.000       7.027e-06          0.7693
 297       1.510e-02      -6.182e-01      -7.993e-07           0.000           0.000           1.000       4.386e-06          1.3592
 298       6.679e-03      -6.182e-01      -4.759e-07           0.000           0.000           1.000       1.491e-06          3.2667
Strip 24
 299       2.391e-01      -6.178e-01       2.957e-09           0.000          -0.000           1.000       1.610e-06          0.0222
 300       2.340e-01      -6.178e-01       5.323e-09          -0.000          -0.000           1.000       4.736e-06          0.0387
 301       2.224e-01      -6.178e-01      -3.669e-09           0.000           0.000           1.000       7.587e-06          0.0574
 302       2.050e-01      -6.178e-01       2.146e-08          -0.000          -0.000           1.000       9.997e-06          0.0781
 303       1.827e-01      -6.178e-01       3.582e-08           0.000           0.000           1.000       1.183e-05          0.1023
 304       1.569e-01      -6.178e-01       3.390e-07           0.000           0.000           1.000       1.297e-05          0.1325
 305       1.291e-01      -6.178e-01       9.770e-07           0.000          -0.000           1.000       1.336e-05          0.1722
 306       1.008e-01      -6.178e-01      -1.315e-08          -0.000          -0.000           1.000       1.297e-05          0.2277
 307       7.378e-02      -6.178e-01      -1.711e-06           0.000           0.000           1.000       1.183e-05          0.3206
 308       4.955e-02      -6.178e-01       2.205e-06          -0.000          -0.000           1.000       9.997e-06          0.4842
 309       2.953e-02      -6.178e-01      -2.629e-07          -0.000          -0.000           1.000       7.587e-06          0.7766
 310       1.488e-02      -6.178e-01      -8.001e-07           0.000           0.000           1.000       4.736e-06          1.3691
 311       6.456e-03      -6.178e-01      -4.763e-07           0.000           0.000           1.000       1.610e-06          3.2854
Strip 25
 312       2.391e-01      -6.173e-01       2.960e-09           0.000          -0.000           1.000       1.701e-06          0.0224
 313       2.340e-01      -6.173e-01       5.328e-09          -0.000          -0.000           1.000       5.005e-06          0.0391
 314       2.224e-01      -6.173e-01      -3.673e-09           0.000           0.000           1.000       8.019e-06          0.0581
 315       2.049e-01      -6.173e-01       2.148e-08          -0.000          -0.000           1.000       1.057e-05          0.0791
 316       1.826e-01      -6.173e-01       3.586e-08           0.000           0.000           1.000       1.250e-05          0.1037
 317       1.568e-01      -6.173e-01       3.394e-07           0.000           0.000           1.000       1.371e-05          0.1344
 318       1.289e-01      -6.173e-01       9.780e-07           0.000          -0.000           1.000       1.412e-05          0.1747
 319       1.007e-01      -6.173e-01      -1.316e-08          -0.000          -0.000           1.000       1.371e-05          0.2310
 320       7.361e-02      -6.173e-01      -1.713e-06           0.000           0.000           1.000       1.250e-05          0.3251
 321       4.936e-02      -6.173e-01       2.207e-06          -0.000          -0.000           1.000       1.057e-05          0.4902
 322       2.932e-02      -6.173e-01      -2.632e-07          -0.000          -0.000           1.000       8.019e-06          0.7843
 323       1.465e-02      -6.173e-01      -8.009e-07           0.000           0.000           1.000       5.005e-06          1.3806
 324       6.217e-03      -6.173e-01      -4.768e-07           0.000           0.000           1.000       1.701e-06          3.3018
Strip 26
 325       2.391e-01      -6.168e-01       2.963e-09           0.000          -0.000           1.000       1.764e-06          0.0227
 326       2.340e-01      -6.168e-01       5.334e-09          -0.000          -0.000           1.000       5.190e-06          0.0396
 327       2.224e-01      -6.168e-01      -3.677e-09           0.000           0.000           1.000       8.314e-06          0.0588
 328       2.049e-01      -6.168e-01       2.151e-08          -0.000          -0.000           1.000       1.096e-05          0.0802
 329       1.826e-01      -6.168e-01       3.590e-08           0.000           0.000           1.000       1.296e-05          0.1051
 330       1.567e-01      -6.168e-01       3.397e-07           0.000           0.000           1.000       1.421e-05          0.1362
 331       1.288e-01      -6.168e-01       9.790e-07           0.000          -0.000           1.000       1.464e-05          0.1772
 332       1.005e-01      -6.168e-01      -1.317e-08          -0.000          -0.000           1.000       1.421e-05          0.2344
 333       7.343e-02      -6.168e-01      -1.715e-06           0.000           0.000           1.000       1.296e-05          0.3298
 334       4.915e-02      -6.168e-01       2.210e-06          -0.000          -0.000           1.000       1.096e-05          0.4962
 335       2.909e-02      -6.168e-01      -2.634e-07          -0.000          -0.000           1.000       8.314e-06          0.7920
 336       1.441e-02      -6.168e-01      -8.018e-07           0.000           0.000           1.000       5.190e-06          1.3931
 337       5.968e-03      -6.168e-01      -4.773e-07           0.000           0.000           1.000       1.764e-06          3.3168
Strip 27
 338       2.391e-01      -6.163e-01       2.967e-09           0.000          -0.000           1.000       1.797e-06          0.0229
 339       2.340e-01      -6.163e-01       5.340e-09          -0.000          -0.000           1.000       5.286e-06          0.0400
 340       2.224e-01      -6.163e-01      -3.681e-09           0.000           0.000           1.000       8.468e-06          0.0596
 341       2.049e-01      -6.163e-01       2.153e-08          -0.000          -0.000           1.000       1.116e-05          0.0812
 342       1.825e-01      -6.163e-01       3.594e-08           0.000           0.000           1.000       1.320e-05          0.1065
 343       1.566e-01      -6.163e-01       3.401e-07           0.000           0.000           1.000       1.447e-05          0.1381
 344       1.287e-01      -6.163e-01       9.801e-07           0.000          -0.000           1.000       1.491e-05          0.1796
 345       1.004e-01      -6.163e-01      -1.319e-08          -0.000          -0.000           1.000       1.447e-05          0.2377
 346       7.325e-02      -6.163e-01      -1.717e-06           0.000           0.000           1.000       1.320e-05          0.3343
 347       4.894e-02      -6.163e-01       2.212e-06          -0.000          -0.000           1.000       1.116e-05          0.5021
 348       2.886e-02      -6.163e-01      -2.637e-07          -0.000          -0.000           1.000       8.468e-06          0.7994
 349       1.417e-02      -6.163e-01      -8.026e-07           0.000           0.000           1.000       5.286e-06          1.4052
 350       5.712e-03      -6.163e-01      -4.778e-07           0.000           0.000           1.000       1.797e-06          3.3331
Strip 28
 351       2.391e-01      -6.160e-01       2.968e-09           0.000           0.000           1.000       1.178e-07          0.0230
 352       2.340e-01      -6.160e-01       5.343e-09          -0.000          -0.000           1.000       3.467e-07          0.0402
 353       2.224e-01      -6.160e-01      -3.683e-09           0.000           0.000           1.000       5.553e-07          0.0598
 354       2.049e-01      -6.160e-01       2.154e-08          -0.000          -0.000           1.000       7.317e-07          0.0816
 355       1.825e-01      -6.160e-01       3.596e-08           0.000           0.000           1.000       8.656e-07          0.1070
 356       1.566e-01      -6.160e-01       3.403e-07           0.000           0.000           1.000       9.492e-07          0.1387
 357       1.286e-01      -6.160e-01       9.806e-07           0.000          -0.000           1.000       9.776e-07          0.1805
 358       1.003e-01      -6.160e-01      -1.320e-08          -0.000          -0.000           1.000       9.492e-07          0.2389
 359       7.315e-02      -6.160e-01      -1.717e-06           0.000           0.000           1.000       8.656e-07          0.3359
 360       4.884e-02      -6.160e-01       2.213e-06          -0.000          -0.000           1.000       7.317e-07          0.5041
 361       2.874e-02      -6.160e-01      -2.639e-07          -0.000          -0.000           1.000       5.553e-07          0.8018
 362       1.404e-02      -6.160e-01      -8.031e-07           0.000           0.000           1.000       3.467e-07          1.4083
 363       5.578e-03      -6.160e-01      -4.781e-07           0.000           0.000           1.000       1.178e-07          3.3431
Strip 29
 364       2.391e-01      -6.159e-01       2.969e-09           0.000          -0.000           1.000       3.515e-07          0.0231
 365       2.340e-01      -6.159e-01       5.343e-09          -0.000          -0.000           1.000       1.034e-06          0.0403
 366       2.224e-01      -6.159e-01      -3.683e-09           0.000           0.000           1.000       1.657e-06          0.0601
 367       2.048e-01      -6.159e-01       2.154e-08          -0.000          -0.000           1.000       2.183e-06          0.0819
 368       1.825e-01      -6.159e-01       3.596e-08           0.000           0.000           1.000       2.582e-06          0.1074
 369       1.566e-01      -6.159e-01       3.403e-07           0.000           0.000           1.000       2.832e-06          0.1393
 370       1.286e-01      -6.159e-01       9.807e-07           0.000          -0.000           1.000       2.916e-06          0.1812
 371       1.003e-01      -6.159e-01      -1.320e-08          -0.000          -0.000           1.000       2.832e-06          0.2399
 372       7.314e-02      -6.159e-01      -1.718e-06           0.000           0.000           1.000       2.582e-06          0.3373
 373       4.882e-02      -6.159e-01       2.214e-06          -0.000          -0.000           1.000       2.183e-06          0.5059
 374       2.873e-02      -6.159e-01      -2.639e-07          -0.000          -0.000           1.000       1.657e-06          0.8040
 375       1.402e-02      -6.159e-01      -8.032e-07           0.000           0.000           1.000       1.034e-06          1.4110
 376       5.561e-03      -6.159e-01      -4.781e-07           0.000           0.000           1.000       3.515e-07          3.3530
Strip 30
 377       2.391e-01      -6.158e-01       2.969e-09           0.000          -0.000           1.000       5.793e-07          0.0231
 378       2.340e-01      -6.158e-01       5.344e-09          -0.000          -0.000           1.000       1.704e-06          0.0405
 379       2.224e-01      -6.158e-01      -3.684e-09           0.000           0.000           1.000       2.730e-06          0.0603
 380       2.048e-01      -6.158e-01       2.155e-08          -0.000          -0.000           1.000       3.597e-06          0.0823
 381       1.825e-01      -6.158e-01       3.597e-08           0.000           0.000           1.000       4.255e-06          0.1080
 382       1.566e-01      -6.158e-01       3.404e-07           0.000           0.000           1.000       4.666e-06          0.1400
 383       1.286e-01      -6.158e-01       9.808e-07           0.000          -0.000           1.000       4.806e-06          0.1822
 384       1.002e-01      -6.158e-01      -1.320e-08          -0.000          -0.000           1.000       4.666e-06          0.2412
 385       7.312e-02      -6.158e-01      -1.718e-06           0.000           0.000           1.000       4.255e-06          0.3391
 386       4.879e-02      -6.158e-01       2.214e-06          -0.000          -0.000           1.000       3.597e-06          0.5081
 387       2.870e-02      -6.158e-01      -2.639e-07          -0.000          -0.000           1.000       2.730e-06          0.8068
 388       1.399e-02      -6.158e-01      -8.033e-07           0.000           0.000           1.000       1.704e-06          1.4141
 389       5.528e-03      -6.158e-01      -4.782e-07           0.000           0.000           1.000       5.793e-07          3.3675
Strip 31
 390       2.391e-01      -6.156e-01       2.970e-09           0.000          -0.000           1.000       7.972e-07          0.0233
 391       2.340e-01      -6.156e-01       5.345e-09          -0.000          -0.000           1.000       2.345e-06          0.0407
 392       2.224e-01      -6.156e-01      -3.685e-09           0.000           0.000           1.000       3.757e-06          0.0607
 393       2.048e-01      -6.156e-01       2.155e-08          -0.000          -0.000           1.000       4.951e-06          0.0828
 394       1.825e-01      -6.156e-01       3.597e-08           0.000           0.000           1.000       5.856e-06          0.1087
 395       1.565e-01      -6.156e-01       3.405e-07           0.000           0.000           1.000       6.422e-06          0.1409
 396       1.286e-01      -6.156e-01       9.810e-07           0.000          -0.000           1.000       6.614e-06          0.1834
 397       1.002e-01      -6.156e-01      -1.320e-08          -0.000          -0.000           1.000       6.422e-06          0.2428
 398       7.308e-02      -6.156e-01      -1.718e-06           0.000           0.000           1.000       5.856e-06          0.3413
 399       4.875e-02      -6.156e-01       2.214e-06          -0.000          -0.000           1.000       4.951e-06          0.5109
 400       2.865e-02      -6.156e-01      -2.640e-07          -0.000          -0.000           1.000       3.757e-06          0.8101
 401       1.394e-02      -6.156e-01      -8.034e-07           0.000           0.000           1.000       2.345e-06          1.4174
 402       5.479e-03      -6.156e-01      -4.783e-07           0.000           0.000           1.000       7.972e-07          3.3876
Strip 32
 403       2.391e-01      -6.153e-01       2.970e-09           0.000          -0.000           1.000       1.002e-06          0.0234
 404       2.340e-01      -6.153e-01       5.346e-09          -0.000          -0.000           1.000       2.947e-06          0.0410
 405       2.224e-01      -6.153e-01      -3.686e-09           0.000           0.000           1.000       4.721e-06          0.0611
 406       2.048e-01      -6.153e-01       2.156e-08          -0.000          -0.000           1.000       6.220e-06          0.0834
 407       1.825e-01      -6.153e-01       3.598e-08           0.000           0.000           1.000       7.358e-06          0.1095
 408       1.565e-01      -6.153e-01       3.405e-07           0.000           0.000           1.000       8.069e-06          0.1420
 409       1.286e-01      -6.153e-01       9.813e-07           0.000          -0.000           1.000       8.310e-06          0.1849
 410       1.002e-01      -6.153e-01      -1.321e-08          -0.000          -0.000           1.000       8.069e-06          0.2448
 411       7.304e-02      -6.153e-01      -1.719e-06           0.000           0.000           1.000       7.358e-06          0.3439
 412       4.870e-02      -6.153e-01       2.215e-06          -0.000          -0.000           1.000       6.220e-06          0.5142
 413       2.859e-02      -6.153e-01      -2.641e-07          -0.000          -0.000           1.000       4.721e-06          0.8140
 414       1.388e-02      -6.153e-01      -8.037e-07           0.000           0.000           1.000       2.947e-06          1.4209
 415       5.414e-03      -6.153e-01      -4.784e-07           0.000           0.000           1.000       1.002e-06          3.4134
Strip 33
 416       2.391e-01      -6.150e-01       2.971e-09           0.000           0.000           1.000       1.189e-06          0.0236
 417       2.340e-01      -6.150e-01       5.348e-09          -0.000          -0.000           1.000       3.498e-06          0.0413
 418       2.224e-01      -6.150e-01      -3.687e-09           0.000           0.000           1.000       5.604e-06          0.0616
 419       2.048e-01      -6.150e-01       2.156e-08          -0.000          -0.000           1.000       7.385e-06          0.0841
 420       1.824e-01      -6.150e-01       3.600e-08           0.000           0.000           1.000       8.736e-06          0.1105
 421       1.565e-01      -6.150e-01       3.407e-07           0.000           0.000           1.000       9.579e-06          0.1433
 422       1.285e-01      -6.150e-01       9.816e-07           0.000          -0.000           1.000       9.866e-06          0.1866
 423       1.001e-01      -6.150e-01      -1.321e-08          -0.000          -0.000           1.000       9.579e-06          0.2471
 424       7.298e-02      -6.150e-01      -1.719e-06           0.000           0.000           1.000       8.736e-06          0.3470
 425       4.864e-02      -6.150e-01       2.216e-06          -0.000          -0.000           1.000       7.385e-06          0.5181
 426       2.852e-02      -6.150e-01      -2.642e-07          -0.000          -0.000           1.000       5.604e-06          0.8186
 427       1.380e-02      -6.150e-01      -8.039e-07           0.000           0.000           1.000       3.498e-06          1.4251
 428       5.335e-03      -6.150e-01      -4.786e-07           0.000           0.000           1.000       1.189e-06          3.4440
Strip 34
 429       2.391e-01      -6.146e-01       2.973e-09           0.000          -0.000           1.000       1.357e-06          0.0238
 430       2.340e-01      -6.146e-01       5.350e-09          -0.000          -0.000           1.000       3.991e-06          0.0417
 431       2.223e-01      -6.146e-01      -3.688e-09           0.000           0.000           1.000       6.393e-06          0.0622
 432       2.048e-01      -6.146e-01       2.157e-08          -0.000          -0.000           1.000       8.424e-06          0.0849
 433       1.824e-01      -6.146e-01       3.601e-08           0.000           0.000           1.000       9.965e-06          0.1116
 434       1.565e-01      -6.146e-01       3.408e-07           0.000           0.000           1.000       1.093e-05          0.1448
 435       1.285e-01      -6.146e-01       9.820e-07           0.000          -0.000           1.000       1.125e-05          0.1885
 436       1.001e-01      -6.146e-01      -1.322e-08          -0.000          -0.000           1.000       1.093e-05          0.2496
 437       7.291e-02      -6.146e-01      -1.720e-06           0.000           0.000           1.000       9.965e-06          0.3505
 438       4.856e-02      -6.146e-01       2.217e-06          -0.000          -0.000           1.000       8.424e-06          0.5224
 439       2.844e-02      -6.146e-01      -2.643e-07          -0.000          -0.000           1.000       6.393e-06          0.8236
 440       1.371e-02      -6.146e-01      -8.043e-07           0.000           0.000           1.000       3.991e-06          1.4303
 441       5.244e-03      -6.146e-01      -4.788e-07           0.000           0.000           1.000       1.357e-06          3.4780
Strip 35
 442       2.391e-01      -6.142e-01       2.974e-09           0.000          -0.000           1.000       1.501e-06          0.0240
 443       2.340e-01      -6.142e-01       5.353e-09          -0.000          -0.000           1.000       4.415e-06          0.0421
 444       2.223e-01      -6.142e-01      -3.690e-09           0.000           0.000           1.000       7.073e-06          0.0629
 445       2.048e-01      -6.142e-01       2.158e-08          -0.000          -0.000           1.000       9.320e-06          0.0859
 446       1.824e-01      -6.142e-01       3.603e-08           0.000           0.000           1.000       1.103e-05          0.1128
 447       1.564e-01      -6.142e-01       3.409e-07           0.000           0.000           1.000       1.209e-05          0.1464
 448       1.284e-01      -6.142e-01       9.825e-07           0.000          -0.000           1.000       1.245e-05          0.1906
 449       1.000e-01      -6.142e-01      -1.322e-08          -0.000          -0.000           1.000       1.209e-05          0.2525
 450       7.284e-02      -6.142e-01      -1.721e-06           0.000           0.000           1.000       1.103e-05          0.3543
 451       4.848e-02      -6.142e-01       2.218e-06          -0.000          -0.000           1.000       9.320e-06          0.5272
 452       2.835e-02      -6.142e-01      -2.644e-07          -0.000          -0.000           1.000       7.073e-06          0.8293
 453       1.362e-02      -6.142e-01      -8.046e-07           0.000           0.000           1.000       4.415e-06          1.4367
 454       5.142e-03      -6.142e-01      -4.790e-07           0.000           0.000           1.000       1.501e-06          3.5136
Strip 36
 455       2.391e-01      -6.138e-01       2.975e-09           0.000          -0.000           1.000       1.620e-06          0.0242
 456       2.340e-01      -6.138e-01       5.355e-09          -0.000          -0.000           1.000       4.765e-06          0.0425
 457       2.223e-01      -6.138e-01      -3.692e-09           0.000           0.000           1.000       7.633e-06          0.0635
 458       2.048e-01      -6.138e-01       2.159e-08          -0.000          -0.000           1.000       1.006e-05          0.0868
 459       1.824e-01      -6.138e-01       3.604e-08           0.000           0.000           1.000       1.190e-05          0.1141
 460       1.564e-01      -6.138e-01       3.411e-07           0.000           0.000           1.000       1.305e-05          0.1481
 461       1.284e-01      -6.138e-01       9.829e-07           0.000          -0.000           1.000       1.344e-05          0.1929
 462       9.995e-02      -6.138e-01      -1.323e-08          -0.000          -0.000           1.000       1.305e-05          0.2556
 463       7.276e-02      -6.138e-01      -1.722e-06           0.000           0.000           1.000       1.190e-05          0.3585
 464       4.839e-02      -6.138e-01       2.219e-06          -0.000          -0.000           1.000       1.006e-05          0.5324
 465       2.825e-02      -6.138e-01      -2.645e-07          -0.000          -0.000           1.000       7.633e-06          0.8354
 466       1.351e-02      -6.138e-01      -8.050e-07           0.000           0.000           1.000       4.765e-06          1.4444
 467       5.030e-03      -6.138e-01      -4.792e-07           0.000           0.000           1.000       1.620e-06          3.5495
Strip 37
 468       2.391e-01      -6.133e-01       2.977e-09           0.000          -0.000           1.000       1.711e-06          0.0244
 469       2.340e-01      -6.133e-01       5.358e-09          -0.000          -0.000           1.000       5.033e-06          0.0430
 470       2.223e-01      -6.133e-01      -3.694e-09           0.000           0.000           1.000       8.063e-06          0.0643
 471       2.048e-01      -6.133e-01       2.160e-08          -0.000          -0.000           1.000       1.062e-05          0.0879
 472       1.823e-01      -6.133e-01       3.606e-08           0.000           0.000           1.000       1.257e-05          0.1155
 473       1.563e-01      -6.133e-01       3.413e-07           0.000           0.000           1.000       1.378e-05          0.1500
 474       1.283e-01      -6.133e-01       9.834e-07           0.000          -0.000           1.000       1.419e-05          0.1954
 475       9.988e-02      -6.133e-01      -1.323e-08          -0.000          -0.000           1.000       1.378e-05          0.2589
 476       7.268e-02      -6.133e-01      -1.722e-06           0.000           0.000           1.000       1.257e-05          0.3629
 477       4.829e-02      -6.133e-01       2.220e-06          -0.000          -0.000           1.000       1.062e-05          0.5379
 478       2.814e-02      -6.133e-01      -2.646e-07          -0.000          -0.000           1.000       8.063e-06          0.8420
 479       1.339e-02      -6.133e-01      -8.054e-07           0.000           0.000           1.000       5.033e-06          1.4535
 480       4.911e-03      -6.133e-01      -4.795e-07           0.000           0.000           1.000       1.711e-06          3.5845
Strip 38
 481       2.391e-01      -6.128e-01       2.978e-09           0.000          -0.000           1.000       1.773e-06          0.0247
 482       2.340e-01      -6.128e-01       5.361e-09          -0.000          -0.000           1.000       5.216e-06          0.0434
[...]
1281       1.029e-01       6.231e-01      -1.295e-08          -0.000           0.000           1.000       1.731e-05          0.1889
1282       7.622e-02       6.231e-01      -1.686e-06           0.000          -0.000           1.000       1.578e-05          0.2657
1283       5.236e-02       6.231e-01       2.173e-06          -0.000           0.000           1.000       1.334e-05          0.4104
1284       3.263e-02       6.231e-01      -2.590e-07          -0.000           0.000           1.000       1.013e-05          0.6782
1285       1.820e-02       6.231e-01      -7.883e-07           0.000          -0.000           1.000       6.321e-06          1.2351
1286       9.895e-03       6.231e-01      -4.693e-07           0.000          -0.000           1.000       2.149e-06          3.1450
Strip 100
1287       2.392e-01       6.237e-01       2.909e-09           0.000          -0.000           1.000       1.348e-06          0.0190
1288       2.341e-01       6.237e-01       5.236e-09          -0.000           0.000           1.000       3.967e-06          0.0326
1289       2.227e-01       6.237e-01      -3.609e-09           0.000          -0.000           1.000       6.355e-06          0.0478
1290       2.056e-01       6.237e-01       2.111e-08          -0.000           0.000           1.000       8.373e-06          0.0646
1291       1.836e-01       6.237e-01       3.524e-08           0.000          -0.000           1.000       9.905e-06          0.0842
1292       1.583e-01       6.237e-01       3.335e-07           0.000          -0.000           1.000       1.086e-05          0.1086
1293       1.309e-01       6.237e-01       9.610e-07           0.000           0.000           1.000       1.119e-05          0.1403
1294       1.031e-01       6.237e-01      -1.293e-08          -0.000           0.000           1.000       1.086e-05          0.1840
1295       7.650e-02       6.237e-01      -1.683e-06           0.000          -0.000           1.000       9.905e-06          0.2587
1296       5.267e-02       6.237e-01       2.169e-06          -0.000           0.000           1.000       8.373e-06          0.4008
1297       3.298e-02       6.237e-01      -2.586e-07          -0.000           0.000           1.000       6.355e-06          0.6656
1298       1.857e-02       6.237e-01      -7.870e-07           0.000          -0.000           1.000       3.967e-06          1.2143
1299       1.028e-02       6.237e-01      -4.685e-07           0.000          -0.000           1.000       1.348e-06          3.1301
Strip 101
1300       2.392e-01       6.239e-01       2.906e-09           0.000           0.000           1.000       4.595e-07          0.0187
1301       2.341e-01       6.239e-01       5.231e-09          -0.000           0.000           1.000       1.352e-06          0.0321
1302       2.227e-01       6.239e-01      -3.606e-09           0.000          -0.000           1.000       2.166e-06          0.0469
1303       2.056e-01       6.239e-01       2.109e-08          -0.000           0.000           1.000       2.854e-06          0.0633
1304       1.837e-01       6.239e-01       3.521e-08           0.000          -0.000           1.000       3.376e-06          0.0826
1305       1.583e-01       6.239e-01       3.332e-07           0.000          -0.000           1.000       3.702e-06          0.1064
1306       1.310e-01       6.239e-01       9.601e-07           0.000           0.000           1.000       3.812e-06          0.1375
1307       1.032e-01       6.239e-01      -1.292e-08          -0.000           0.000           1.000       3.702e-06          0.1801
1308       7.664e-02       6.239e-01      -1.682e-06           0.000          -0.000           1.000       3.376e-06          0.2530
1309       5.283e-02       6.239e-01       2.167e-06          -0.000           0.000           1.000       2.854e-06          0.3931
1310       3.316e-02       6.239e-01      -2.584e-07          -0.000           0.000           1.000       2.166e-06          0.6556
1311       1.876e-02       6.239e-01      -7.863e-07           0.000          -0.000           1.000       1.352e-06          1.1977
1312       1.048e-02       6.239e-01      -4.681e-07           0.000          -0.000           1.000       4.595e-07          3.1135
Strip 102
1313       2.392e-01       6.250e-01       2.896e-09           0.000           0.000           1.000       6.720e-06          0.0184
1314       2.342e-01       6.250e-01       5.213e-09          -0.000           0.000           1.000       1.977e-05          0.0314
1315       2.228e-01       6.250e-01      -3.594e-09           0.000          -0.000           1.000       3.167e-05          0.0459
1316       2.057e-01       6.250e-01       2.102e-08          -0.000           0.000           1.000       4.173e-05          0.0619
1317       1.839e-01       6.250e-01       3.509e-08           0.000          -0.000           1.000       4.936e-05          0.0807
1318       1.586e-01       6.250e-01       3.320e-07           0.000          -0.000           1.000       5.413e-05          0.1039
1319       1.313e-01       6.250e-01       9.568e-07           0.000           0.000           1.000       5.575e-05          0.1341
1320       1.037e-01       6.250e-01      -1.288e-08          -0.000           0.000           1.000       5.413e-05          0.1755
1321       7.720e-02       6.250e-01      -1.676e-06           0.000          -0.000           1.000       4.936e-05          0.2464
1322       5.348e-02       6.250e-01       2.160e-06          -0.000           0.000           1.000       4.173e-05          0.3842
1323       3.387e-02       6.250e-01      -2.575e-07          -0.000           0.000           1.000       3.167e-05          0.6444
1324       1.952e-02       6.250e-01      -7.836e-07           0.000          -0.000           1.000       1.977e-05          1.1794
1325       1.127e-02       6.250e-01      -4.665e-07           0.000          -0.000           1.000       6.720e-06          3.0981
Strip 103
1326       2.392e-01       6.267e-01       2.880e-09           0.000           0.000           1.000       4.892e-06          0.0174
1327       2.342e-01       6.267e-01       5.184e-09          -0.000           0.000           1.000       1.439e-05          0.0297
1328       2.229e-01       6.267e-01      -3.574e-09           0.000          -0.000           1.000       2.305e-05          0.0432
1329       2.059e-01       6.267e-01       2.090e-08          -0.000           0.000           1.000       3.038e-05          0.0581
1330       1.842e-01       6.267e-01       3.489e-08           0.000          -0.000           1.000       3.593e-05          0.0756
1331       1.591e-01       6.267e-01       3.302e-07           0.000          -0.000           1.000       3.940e-05          0.0972
1332       1.320e-01       6.267e-01       9.514e-07           0.000           0.000           1.000       4.058e-05          0.1252
1333       1.044e-01       6.267e-01      -1.280e-08          -0.000           0.000           1.000       3.940e-05          0.1634
1334       7.812e-02       6.267e-01      -1.666e-06           0.000          -0.000           1.000       3.593e-05          0.2288
1335       5.452e-02       6.267e-01       2.148e-06          -0.000           0.000           1.000       3.038e-05          0.3603
1336       3.503e-02       6.267e-01      -2.560e-07          -0.000           0.000           1.000       2.305e-05          0.6171
1337       2.076e-02       6.267e-01      -7.792e-07           0.000          -0.000           1.000       1.439e-05          1.1401
1338       1.255e-02       6.267e-01      -4.639e-07           0.000          -0.000           1.000       4.892e-06          2.9729
Strip 104
1339       2.392e-01       6.277e-01       2.871e-09           0.000           0.000           1.000       1.785e-06          0.0167
1340       2.342e-01       6.277e-01       5.167e-09          -0.000           0.000           1.000       5.250e-06          0.0283
1341       2.229e-01       6.277e-01      -3.562e-09           0.000          -0.000           1.000       8.410e-06          0.0410
1342       2.060e-01       6.277e-01       2.083e-08          -0.000           0.000           1.000       1.108e-05          0.0551
1343       1.844e-01       6.277e-01       3.477e-08           0.000          -0.000           1.000       1.311e-05          0.0715
1344       1.593e-01       6.277e-01       3.291e-07           0.000          -0.000           1.000       1.438e-05          0.0919
1345       1.323e-01       6.277e-01       9.483e-07           0.000           0.000           1.000       1.481e-05          0.1182
1346       1.049e-01       6.277e-01      -1.276e-08          -0.000           0.000           1.000       1.438e-05          0.1538
1347       7.865e-02       6.277e-01      -1.661e-06           0.000          -0.000           1.000       1.311e-05          0.2149
1348       5.513e-02       6.277e-01       2.141e-06          -0.000           0.000           1.000       1.108e-05          0.3408
1349       3.570e-02       6.277e-01      -2.552e-07          -0.000           0.000           1.000       8.410e-06          0.5940
1350       2.148e-02       6.277e-01      -7.767e-07           0.000          -0.000           1.000       5.250e-06          1.1226
1351       1.330e-02       6.277e-01      -4.624e-07           0.000          -0.000           1.000       1.785e-06          2.8278
Strip 105
1352       2.392e-01       6.294e-01       2.846e-09           0.000           0.000           1.000       9.338e-06          0.0159
1353       2.343e-01       6.294e-01       5.122e-09          -0.000           0.000           1.000       2.747e-05          0.0268
1354       2.231e-01       6.294e-01      -3.531e-09           0.000          -0.000           1.000       4.401e-05          0.0386
1355       2.063e-01       6.294e-01       2.065e-08          -0.000           0.000           1.000       5.799e-05          0.0517
1356       1.849e-01       6.294e-01       3.448e-08           0.000          -0.000           1.000       6.860e-05          0.0671
1357       1.600e-01       6.294e-01       3.263e-07           0.000          -0.000           1.000       7.522e-05          0.0861
1358       1.332e-01       6.294e-01       9.402e-07           0.000           0.000           1.000       7.747e-05          0.1105
1359       1.060e-01       6.294e-01      -1.265e-08          -0.000           0.000           1.000       7.522e-05          0.1433
1360       8.003e-02       6.294e-01      -1.647e-06           0.000          -0.000           1.000       6.860e-05          0.1994
1361       5.672e-02       6.294e-01       2.122e-06          -0.000           0.000           1.000       5.799e-05          0.3186
1362       3.745e-02       6.294e-01      -2.530e-07          -0.000           0.000           1.000       4.401e-05          0.5666
1363       2.335e-02       6.294e-01      -7.700e-07           0.000          -0.000           1.000       2.747e-05          1.0881
1364       1.524e-02       6.294e-01      -4.584e-07           0.000          -0.000           1.000       9.338e-06          2.7436
Strip 106
1365       2.392e-01       6.314e-01       2.815e-09           0.000           0.000           1.000       3.825e-06          0.0146
1366       2.343e-01       6.314e-01       5.066e-09          -0.000           0.000           1.000       1.125e-05          0.0243
1367       2.233e-01       6.314e-01      -3.492e-09           0.000          -0.000           1.000       1.803e-05          0.0349
1368       2.067e-01       6.314e-01       2.043e-08          -0.000           0.000           1.000       2.375e-05          0.0466
1369       1.855e-01       6.314e-01       3.410e-08           0.000          -0.000           1.000       2.810e-05          0.0604
1370       1.609e-01       6.314e-01       3.227e-07           0.000          -0.000           1.000       3.081e-05          0.0773
1371       1.344e-01       6.314e-01       9.299e-07           0.000           0.000           1.000       3.174e-05          0.0989
1372       1.075e-01       6.314e-01      -1.251e-08          -0.000           0.000           1.000       3.081e-05          0.1275
1373       8.179e-02       6.314e-01      -1.629e-06           0.000          -0.000           1.000       2.810e-05          0.1759
1374       5.873e-02       6.314e-01       2.099e-06          -0.000           0.000           1.000       2.375e-05          0.2819
1375       3.968e-02       6.314e-01      -2.502e-07          -0.000           0.000           1.000       1.803e-05          0.5214
1376       2.574e-02       6.314e-01      -7.615e-07           0.000          -0.000           1.000       1.125e-05          1.0161
1377       1.772e-02       6.314e-01      -4.534e-07           0.000          -0.000           1.000       3.825e-06          2.6338
Strip 107
1378       2.392e-01       6.334e-01       2.775e-09           0.000           0.000           1.000       9.103e-06          0.0132
1379       2.344e-01       6.334e-01       4.994e-09          -0.000           0.000           1.000       2.678e-05          0.0218
1380       2.235e-01       6.334e-01      -3.443e-09           0.000          -0.000           1.000       4.290e-05          0.0310
1381       2.071e-01       6.334e-01       2.014e-08          -0.000           0.000           1.000       5.653e-05          0.0412
1382       1.862e-01       6.334e-01       3.361e-08           0.000          -0.000           1.000       6.687e-05          0.0533
1383       1.620e-01       6.334e-01       3.181e-07           0.000          -0.000           1.000       7.333e-05          0.0680
1384       1.359e-01       6.334e-01       9.166e-07           0.000           0.000           1.000       7.552e-05          0.0866
1385       1.094e-01       6.334e-01      -1.233e-08          -0.000           0.000           1.000       7.333e-05          0.1109
1386       8.405e-02       6.334e-01      -1.605e-06           0.000          -0.000           1.000       6.687e-05          0.1513
1387       6.132e-02       6.334e-01       2.069e-06          -0.000           0.000           1.000       5.653e-05          0.2415
1388       4.254e-02       6.334e-01      -2.466e-07          -0.000           0.000           1.000       4.290e-05          0.4693
1389       2.879e-02       6.334e-01      -7.507e-07           0.000          -0.000           1.000       2.678e-05          0.9384
1390       2.089e-02       6.334e-01      -4.469e-07           0.000          -0.000           1.000       9.103e-06          2.5266
Strip 108
1391       2.392e-01       6.354e-01       2.731e-09           0.000           0.000           1.000       3.711e-06          0.0115
1392       2.345e-01       6.354e-01       4.915e-09          -0.000           0.000           1.000       1.092e-05          0.0185
1393       2.238e-01       6.354e-01      -3.388e-09           0.000          -0.000           1.000       1.749e-05          0.0262
1394       2.077e-01       6.354e-01       1.982e-08          -0.000           0.000           1.000       2.305e-05          0.0347
1395       1.871e-01       6.354e-01       3.308e-08           0.000          -0.000           1.000       2.726e-05          0.0447
1396       1.633e-01       6.354e-01       3.131e-07           0.000          -0.000           1.000       2.989e-05          0.0568
1397       1.376e-01       6.354e-01       9.021e-07           0.000           0.000           1.000       3.079e-05          0.0719
1398       1.115e-01       6.354e-01      -1.214e-08          -0.000           0.000           1.000       2.989e-05          0.0912
1399       8.651e-02       6.354e-01      -1.580e-06           0.000          -0.000           1.000       2.726e-05          0.1228
1400       6.414e-02       6.354e-01       2.036e-06          -0.000           0.000           1.000       2.305e-05          0.1939
1401       4.566e-02       6.354e-01      -2.427e-07          -0.000           0.000           1.000       1.749e-05          0.4175
1402       3.213e-02       6.354e-01      -7.388e-07           0.000          -0.000           1.000       1.092e-05          0.8202
1403       2.435e-02       6.354e-01      -4.398e-07           0.000          -0.000           1.000       3.711e-06          2.2882
Strip 109
1404       2.392e-01       6.374e-01       2.643e-09           0.000           0.000           1.000       8.671e-06          0.0096
1405       2.347e-01       6.374e-01       4.756e-09          -0.000           0.000           1.000       2.551e-05          0.0150
1406       2.243e-01       6.374e-01      -3.279e-09           0.000          -0.000           1.000       4.086e-05          0.0210
1407       2.087e-01       6.374e-01       1.918e-08          -0.000           0.000           1.000       5.384e-05          0.0278
1408       1.888e-01       6.374e-01       3.201e-08           0.000          -0.000           1.000       6.369e-05          0.0356
1409       1.657e-01       6.374e-01       3.030e-07           0.000          -0.000           1.000       6.984e-05          0.0449
1410       1.409e-01       6.374e-01       8.730e-07           0.000           0.000           1.000       7.193e-05          0.0562
1411       1.156e-01       6.374e-01      -1.175e-08          -0.000           0.000           1.000       6.984e-05          0.0697
1412       9.147e-02       6.374e-01      -1.529e-06           0.000          -0.001           1.000       6.369e-05          0.0905
1413       6.982e-02       6.374e-01       1.971e-06          -0.000           0.001           1.000       5.384e-05          0.1331
1414       5.193e-02       6.374e-01      -2.349e-07          -0.000           0.000           1.000       4.086e-05          0.3057
1415       3.884e-02       6.374e-01      -7.150e-07           0.000          -0.000           1.000       2.551e-05          0.8196
1416       3.131e-02       6.374e-01      -4.256e-07           0.000          -0.001           1.000       8.671e-06          1.9800
Strip 110
1417       2.393e-01       6.394e-01       2.536e-09           0.000           0.000           1.000       3.447e-06          0.0062
1418       2.349e-01       6.394e-01       4.565e-09          -0.000           0.000           1.000       1.014e-05          0.0093
1419       2.249e-01       6.394e-01      -3.147e-09           0.000          -0.000           1.000       1.624e-05          0.0129
1420       2.100e-01       6.394e-01       1.841e-08          -0.000           0.000           1.000       2.140e-05          0.0170
1421       1.909e-01       6.394e-01       3.072e-08           0.000          -0.000           1.000       2.532e-05          0.0216
1422       1.687e-01       6.394e-01       2.907e-07           0.000          -0.000           1.000       2.776e-05          0.0271
1423       1.449e-01       6.394e-01       8.378e-07           0.000           0.000           1.000       2.860e-05          0.0335
1424       1.206e-01       6.394e-01      -1.127e-08          -0.000           0.000           1.000       2.776e-05          0.0407
1425       9.745e-02       6.394e-01      -1.467e-06           0.000          -0.001           1.000       2.532e-05          0.0514
1426       7.667e-02       6.394e-01       1.891e-06          -0.000           0.001           1.000       2.140e-05          0.0715
1427       5.951e-02       6.394e-01      -2.255e-07          -0.000           0.000           1.000       1.624e-05          0.1304
1428       4.694e-02       6.394e-01      -6.862e-07           0.000          -0.000           1.000       1.014e-05          0.4084
1429       3.972e-02       6.394e-01      -4.085e-07           0.000          -0.001           1.000       3.447e-06          1.9959










