xflr5 v6.50

Plane Name
T1-44.0 m/s-VLM1
QInf  =   44.000000 m/s
Alpha =    3.000000
Beta  =    0.000°
Phi   =    0.000°
Ctrl  =    0.000
CL    =    0.224035
Cy    =    0.000000
Cd    =    0.009706     ICd   =    0.002717     PCd   =    0.006989
Cl   = -2.30447e-16
Cm   =  -0.0541021
ICn   =   -0.000000     PCn   =    0.000000 
XCP   =    0.057814     YCP   =    0.000000     ZCP   =   -0.000000  
XNP   =    0.000000
Bending =    7.144833

Main Wing
  y-span        Chord      Ai         Cl        PCd          ICd        CmGeom    CmAirf@chord/4    XTrtop    XTrBot      XCP       BM
   -0.6394     0.2025    -1.171    0.027132    0.007381    0.000554   -0.009389    0.002592     0.6730    0.6848    0.1545    0.0000
   -0.6374     0.2110    -1.162    0.043382    0.007255    0.000880   -0.013353    0.003606     0.6670    0.6857    0.1669    0.0000
   -0.6354     0.2180    -1.155    0.052697    0.007164    0.001062   -0.014776    0.003844     0.6631    0.6857    0.1771    0.0001
   -0.6334     0.2215    -1.148    0.061296    0.007124    0.001228   -0.016416    0.004145     0.6603    0.6866    0.1824    0.0002
   -0.6314     0.2247    -1.141    0.067997    0.007090    0.001354   -0.017475    0.004263     0.6579    0.6872    0.1873    0.0004
   -0.6294     0.2272    -1.135    0.074238    0.007063    0.001470   -0.018483    0.004361     0.6559    0.6878    0.1913    0.0006
   -0.6277     0.2292    -1.129    0.078107    0.007040    0.001539   -0.018932    0.004386     0.6545    0.6881    0.1938    0.0009
   -0.6267     0.2300    -1.126    0.081706    0.007032    0.001606   -0.019671    0.004435     0.6536    0.6887    0.1957    0.0011
   -0.6250     0.2313    -1.121    0.086153    0.007018    0.001685   -0.020431    0.004473     0.6523    0.6893    0.1981    0.0015
   -0.6239     0.2321    -1.117    0.087700    0.007008    0.001708   -0.020579    0.004466     0.6517    0.6894    0.1991    0.0018
   -0.6237     0.2323    -1.116    0.089138    0.007006    0.001737   -0.020896    0.004468     0.6514    0.6897    0.1999    0.0019
   -0.6231     0.2326    -1.115    0.090859    0.007002    0.001768   -0.021228    0.004465     0.6509    0.6900    0.2009    0.0020
   -0.6224     0.2332    -1.113    0.092846    0.006995    0.001803   -0.021571    0.004455     0.6503    0.6902    0.2020    0.0022
   -0.6215     0.2339    -1.110    0.095019    0.006987    0.001841   -0.021914    0.004436     0.6497    0.6905    0.2033    0.0025
   -0.6205     0.2346    -1.107    0.097199    0.006978    0.001878   -0.022222    0.004409     0.6490    0.6908    0.2046    0.0029
   -0.6200     0.2350    -1.105    0.097519    0.006973    0.001842   -0.022201    0.004400     0.6488    0.6908    0.2050    0.0031
   -0.6199     0.2350    -1.105    0.098175    0.006972    0.001892   -0.022323    0.004397     0.6487    0.6909    0.2052    0.0031
   -0.6198     0.2351    -1.105    0.098767    0.006972    0.001904   -0.022453    0.004394     0.6485    0.6910    0.2055    0.0031
   -0.6196     0.2352    -1.104    0.099432    0.006970    0.001916   -0.022592    0.004391     0.6484    0.6911    0.2058    0.0032
   -0.6193     0.2353    -1.103    0.100187    0.006969    0.001929   -0.022743    0.004388     0.6482    0.6913    0.2062    0.0033
   -0.6190     0.2355    -1.102    0.101036    0.006967    0.001944   -0.022906    0.004383     0.6480    0.6914    0.2066    0.0034
   -0.6186     0.2357    -1.101    0.101972    0.006965    0.001960   -0.023081    0.004378     0.6477    0.6916    0.2071    0.0036
   -0.6182     0.2359    -1.100    0.102985    0.006962    0.001977   -0.023266    0.004373     0.6475    0.6917    0.2075    0.0038
   -0.6178     0.2361    -1.098    0.104061    0.006960    0.001995   -0.023459    0.004366     0.6472    0.6919    0.2080    0.0040
   -0.6173     0.2364    -1.097    0.105182    0.006957    0.002014   -0.023656    0.004358     0.6469    0.6921    0.2086    0.0042
   -0.6168     0.2366    -1.095    0.106325    0.006953    0.002033   -0.023852    0.004349     0.6466    0.6923    0.2091    0.0044
   -0.6163     0.2369    -1.094    0.107444    0.006950    0.002051   -0.024036    0.004341     0.6463    0.6924    0.2096    0.0047
   -0.6160     0.2370    -1.093    0.107770    0.006948    0.002031   -0.024080    0.004339     0.6462    0.6925    0.2098    0.0048
   -0.6159     0.2370    -1.093    0.108182    0.006948    0.002064   -0.024165    0.004339     0.6461    0.6926    0.2099    0.0048
   -0.6158     0.2371    -1.092    0.108639    0.006948    0.002072   -0.024268    0.004338     0.6460    0.6927    0.2101    0.0049
   -0.6156     0.2371    -1.092    0.109199    0.006947    0.002081   -0.024391    0.004339     0.6458    0.6928    0.2103    0.0050
   -0.6153     0.2372    -1.091    0.109874    0.006947    0.002092   -0.024536    0.004339     0.6457    0.6929    0.2105    0.0051
   -0.6150     0.2372    -1.090    0.110661    0.006946    0.002106   -0.024704    0.004340     0.6455    0.6930    0.2108    0.0053
   -0.6146     0.2373    -1.089    0.111554    0.006945    0.002120   -0.024892    0.004341     0.6453    0.6932    0.2111    0.0055
   -0.6142     0.2374    -1.088    0.112541    0.006944    0.002137   -0.025099    0.004342     0.6450    0.6934    0.2114    0.0057
   -0.6138     0.2376    -1.086    0.113609    0.006942    0.002154   -0.025323    0.004342     0.6448    0.6936    0.2118    0.0059
   -0.6133     0.2377    -1.085    0.114741    0.006941    0.002173   -0.025559    0.004342     0.6445    0.6938    0.2122    0.0062
   -0.6128     0.2378    -1.083    0.115922    0.006941    0.002192   -0.025804    0.004340     0.6442    0.6941    0.2126    0.0065
   -0.6123     0.2379    -1.082    0.117122    0.006941    0.002212   -0.026053    0.004338     0.6440    0.6943    0.2130    0.0068
   -0.6119     0.2380    -1.081    0.117921    0.006940    0.002225   -0.026223    0.004336     0.6438    0.6945    0.2132    0.0070
   -0.6117     0.2381    -1.080    0.118703    0.006940    0.002238   -0.026391    0.004334     0.6436    0.6946    0.2135    0.0072
   -0.6111     0.2382    -1.079    0.119936    0.006940    0.002258   -0.026648    0.004329     0.6433    0.6949    0.2139    0.0075
   -0.6104     0.2384    -1.076    0.121601    0.006939    0.002285   -0.026990    0.004322     0.6429    0.6952    0.2145    0.0080
   -0.6095     0.2386    -1.074    0.123627    0.006939    0.002317   -0.027405    0.004310     0.6424    0.6956    0.2151    0.0086
   -0.6085     0.2389    -1.071    0.125911    0.006939    0.002353   -0.027872    0.004293     0.6419    0.6960    0.2159    0.0093
   -0.6077     0.2391    -1.068    0.127979    0.006939    0.002387   -0.028310    0.004277     0.6414    0.6965    0.2166    0.0099
   -0.6067     0.2393    -1.065    0.130305    0.006940    0.002423   -0.028783    0.004257     0.6408    0.6969    0.2173    0.0107
   -0.6050     0.2397    -1.060    0.134166    0.006940    0.002483   -0.029548    0.004224     0.6399    0.6977    0.2185    0.0121
   -0.6037     0.2400    -1.056    0.137479    0.006941    0.002535   -0.030241    0.004219     0.6392    0.6984    0.2193    0.0133
   -0.6027     0.2400    -1.053    0.140874    0.006945    0.002590   -0.031080    0.004230     0.6385    0.6992    0.2200    0.0142
   -0.6010     0.2400    -1.048    0.146809    0.006952    0.002685   -0.032530    0.004263     0.6372    0.7005    0.2210    0.0159
   -0.5772     0.2400    -0.997    0.159281    0.006966    0.002771   -0.035577    0.004335     0.6346    0.7034    0.2228    0.0413
   -0.4893     0.2400    -0.845    0.204578    0.006981    0.003018   -0.047975    0.003261     0.6229    0.7145    0.2341    0.3170
   -0.3269     0.2400    -0.674    0.239709    0.006987    0.002821   -0.058237    0.001781     0.6124    0.7234    0.2426    2.0559
   -0.1148     0.2400    -0.581    0.255438    0.006994    0.002592   -0.062803    0.001148     0.6068    0.7275    0.2455    7.1448
    0.1148     0.2400    -0.581    0.255438    0.006994    0.002592   -0.062803    0.001148     0.6068    0.7275    0.2455    7.1448
    0.3269     0.2400    -0.674    0.239709    0.006987    0.002821   -0.058237    0.001781     0.6124    0.7234    0.2426    2.0559
    0.4893     0.2400    -0.845    0.204578    0.006981    0.003018   -0.047975    0.003261     0.6229    0.7145    0.2341    0.3170
    0.5772     0.2400    -0.997    0.159281    0.006966    0.002771   -0.035577    0.004335     0.6346    0.7034    0.2228    0.0413
    0.6010     0.2400    -1.048    0.146809    0.006952    0.002685   -0.032530    0.004263     0.6372    0.7005    0.2210    0.0159
    0.6027     0.2400    -1.053    0.140874    0.006945    0.002590   -0.031080    0.004230     0.6385    0.6992    0.2200    0.0142
    0.6037     0.2400    -1.056    0.137479    0.006941    0.002535   -0.030241    0.004219     0.6392    0.6984    0.2193    0.0133
    0.6050     0.2397    -1.060    0.134166    0.006940    0.002483   -0.029548    0.004224     0.6399    0.6977    0.2185    0.0121
    0.6067     0.2393    -1.065    0.130305    0.006940    0.002423   -0.028783    0.004257     0.6408    0.6969    0.2173    0.0107
    0.6077     0.2391    -1.068    0.127979    0.006939    0.002387   -0.028310    0.004277     0.6414    0.6965    0.2166    0.0099
    0.6085     0.2389    -1.071    0.125911    0.006939    0.002353   -0.027872    0.004293     0.6419    0.6960    0.2159    0.0093
    0.6095     0.2386    -1.074    0.123627    0.006939    0.002317   -0.027405    0.004310     0.6424    0.6956    0.2151    0.0086
    0.6104     0.2384    -1.076    0.121601    0.006939    0.002285   -0.026990    0.004322     0.6429    0.6952    0.2145    0.0080
    0.6111     0.2382    -1.079    0.119936    0.006940    0.002258   -0.026648    0.004329     0.6433    0.6949    0.2139    0.0075
    0.6117     0.2381    -1.080    0.118703    0.006940    0.002238   -0.026391    0.004334     0.6436    0.6946    0.2135    0.0072
    0.6119     0.2380    -1.081    0.117921    0.006940    0.002225   -0.026223    0.004336     0.6438    0.6945    0.2132    0.0070
    0.6123     0.2379    -1.082    0.117122    0.006941    0.002212   -0.026053    0.004338     0.6440    0.6943    0.2130    0.0068
    0.6128     0.2378    -1.083    0.115922    0.006941    0.002192   -0.025804    0.004340     0.6442    0.6941    0.2126    0.0065
    0.6133     0.2377    -1.085    0.114741    0.006941    0.002173   -0.025559    0.004342     0.6445    0.6938    0.2122    0.0062
    0.6138     0.2376    -1.086    0.113609    0.006942    0.002154   -0.025323    0.004342     0.6448    0.6936    0.2118    0.0059
    0.6142     0.2374    -1.088    0.112541    0.006944    0.002137   -0.025099    0.004342     0.6450    0.6934    0.2114    0.0057
    0.6146     0.2373    -1.089    0.111554    0.006945    0.002120   -0.024892    0.004341     0.6453    0.6932    0.2111    0.0055
    0.6150     0.2372    -1.090    0.110661    0.006946    0.002106   -0.024704    0.004340     0.6455    0.6930    0.2108    0.0053
    0.6153     0.2372    -1.091    0.109874    0.006947    0.002092   -0.024536    0.004339     0.6457    0.6929    0.2105    0.0051
    0.6156     0.2371    -1.092    0.109199    0.006947    0.002081   -0.024391    0.004339     0.6458    0.6928    0.2103    0.0050
    0.6158     0.2371    -1.092    0.108639    0.006948    0.002072   -0.024268    0.004338     0.6460    0.6927    0.2101    0.0049
    0.6159     0.2370    -1.093    0.108182    0.006948    0.002064   -0.024165    0.004339     0.6461    0.6926    0.2099    0.0048
    0.6160     0.2370    -1.093    0.107770    0.006948    0.002031   -0.024080    0.004339     0.6462    0.6925    0.2098    0.0048
    0.6163     0.2369    -1.094    0.107444    0.006950    0.002051   -0.024036    0.004341     0.6463    0.6924    0.2096    0.0047
    0.6168     0.2366    -1.095    0.106325    0.006953    0.002033   -0.023852    0.004349     0.6466    0.6923    0.2091    0.0044
    0.6173     0.2364    -1.097    0.105182    0.006957    0.002014   -0.023656    0.004358     0.6469    0.6921    0.2086    0.0042
    0.6178     0.2361    -1.098    0.104061    0.006960    0.001995   -0.023459    0.004366     0.6472    0.6919    0.2080    0.0040
    0.6182     0.2359    -1.100    0.102985    0.006962    0.001977   -0.023266    0.004373     0.6475    0.6917    0.2075    0.0038
    0.6186     0.2357    -1.101    0.101972    0.006965    0.001960   -0.023081    0.004378     0.6477    0.6916    0.2071    0.0036
    0.6190     0.2355    -1.102    0.101036    0.006967    0.001944   -0.022906    0.004383     0.6480    0.6914    0.2066    0.0034
    0.6193     0.2353    -1.103    0.100187    0.006969    0.001929   -0.022743    0.004388     0.6482    0.6913    0.2062    0.0033
    0.6196     0.2352    -1.104    0.099432    0.006970    0.001916   -0.022592    0.004391     0.6484    0.6911    0.2058    0.0032
    0.6198     0.2351    -1.105    0.098767    0.006972    0.001904   -0.022453    0.004394     0.6485    0.6910    0.2055    0.0031
    0.6199     0.2350    -1.105    0.098175    0.006972    0.001892   -0.022323    0.004397     0.6487    0.6909    0.2052    0.0031
    0.6200     0.2350    -1.105    0.097519    0.006973    0.001842   -0.022201    0.004400     0.6488    0.6908    0.2050    0.0031
    0.6205     0.2346    -1.107    0.097199    0.006978    0.001878   -0.022222    0.004409     0.6490    0.6908    0.2046    0.0029
    0.6215     0.2339    -1.110    0.095019    0.006987    0.001841   -0.021914    0.004436     0.6497    0.6905    0.2033    0.0025
    0.6224     0.2332    -1.113    0.092846    0.006995    0.001803   -0.021571    0.004455     0.6503    0.6902    0.2020    0.0022
    0.6231     0.2326    -1.115    0.090859    0.007002    0.001768   -0.021228    0.004465     0.6509    0.6900    0.2009    0.0020
    0.6237     0.2323    -1.116    0.089138    0.007006    0.001737   -0.020896    0.004468     0.6514    0.6897    0.1999    0.0019
    0.6239     0.2321    -1.117    0.087700    0.007008    0.001708   -0.020579    0.004466     0.6517    0.6894    0.1991    0.0018
    0.6250     0.2313    -1.121    0.086153    0.007018    0.001685   -0.020431    0.004473     0.6523    0.6893    0.1981    0.0015
    0.6267     0.2300    -1.126    0.081706    0.007032    0.001606   -0.019671    0.004435     0.6536    0.6887    0.1957    0.0011
    0.6277     0.2292    -1.129    0.078107    0.007040    0.001539   -0.018932    0.004386     0.6545    0.6881    0.1938    0.0009
    0.6294     0.2272    -1.135    0.074238    0.007063    0.001470   -0.018483    0.004361     0.6559    0.6878    0.1913    0.0006
    0.6314     0.2247    -1.141    0.067997    0.007090    0.001354   -0.017475    0.004263     0.6579    0.6872    0.1873    0.0004
    0.6334     0.2215    -1.148    0.061296    0.007124    0.001228   -0.016416    0.004145     0.6603    0.6866    0.1824    0.0002
    0.6354     0.2180    -1.155    0.052697    0.007164    0.001062   -0.014776    0.003844     0.6631    0.6857    0.1771    0.0001
    0.6374     0.2110    -1.162    0.043382    0.007255    0.000880   -0.013353    0.003606     0.6670    0.6857    0.1669    0.0000
    0.6394     0.2025    -1.171    0.027132    0.007381    0.000554   -0.009389    0.002592     0.6730    0.6848    0.1545    0.0000


Main Wing Cp Coefficients
 Panel     CtrlPt.x        CtrlPt.y        CtrlPt.z       Nx      Ny       Nz        Area       Cp
Main WingCp Coefficients
Strip 1
   0       2.393e-01      -6.394e-01       2.536e-09           0.000          -0.000           1.000       3.447e-06          0.0020
   1       2.349e-01      -6.394e-01       4.565e-09          -0.000          -0.000           1.000       1.014e-05          0.0030
   2       2.249e-01      -6.394e-01      -3.147e-09           0.000           0.000           1.000       1.624e-05          0.0041
   3       2.100e-01      -6.394e-01       1.841e-08          -0.000          -0.000           1.000       2.140e-05          0.0054
   4       1.909e-01      -6.394e-01       3.072e-08           0.000           0.000           1.000       2.532e-05          0.0069
   5       1.687e-01      -6.394e-01       2.907e-07           0.000           0.000           1.000       2.776e-05          0.0087
   6       1.449e-01      -6.394e-01       8.378e-07           0.000          -0.000           1.000       2.860e-05          0.0108
   7       1.206e-01      -6.394e-01      -1.127e-08          -0.000          -0.000           1.000       2.776e-05          0.0129
   8       9.745e-02      -6.394e-01      -1.467e-06           0.000           0.001           1.000       2.532e-05          0.0166
   9       7.667e-02      -6.394e-01       1.891e-06          -0.000          -0.001           1.000       2.140e-05          0.0230
  10       5.951e-02      -6.394e-01      -2.255e-07          -0.000          -0.000           1.000       1.624e-05          0.0418
  11       4.694e-02      -6.394e-01      -6.862e-07           0.000           0.000           1.000       1.014e-05          0.1311
  12       3.972e-02      -6.394e-01      -4.085e-07           0.000           0.001           1.000       3.447e-06          0.6411
Strip 2
  13       2.392e-01      -6.374e-01       2.643e-09           0.000          -0.000           1.000       8.671e-06          0.0031
  14       2.347e-01      -6.374e-01       4.756e-09          -0.000          -0.000           1.000       2.551e-05          0.0048
  15       2.243e-01      -6.374e-01      -3.279e-09           0.000           0.000           1.000       4.086e-05          0.0067
  16       2.087e-01      -6.374e-01       1.918e-08          -0.000          -0.000           1.000       5.384e-05          0.0089
  17       1.888e-01      -6.374e-01       3.201e-08           0.000           0.000           1.000       6.369e-05          0.0114
  18       1.657e-01      -6.374e-01       3.030e-07           0.000           0.000           1.000       6.984e-05          0.0144
  19       1.409e-01      -6.374e-01       8.730e-07           0.000          -0.000           1.000       7.193e-05          0.0182
  20       1.156e-01      -6.374e-01      -1.175e-08          -0.000          -0.000           1.000       6.984e-05          0.0221
  21       9.147e-02      -6.374e-01      -1.529e-06           0.000           0.001           1.000       6.369e-05          0.0293
  22       6.982e-02      -6.374e-01       1.971e-06          -0.000          -0.001           1.000       5.384e-05          0.0427
  23       5.193e-02      -6.374e-01      -2.349e-07          -0.000          -0.000           1.000       4.086e-05          0.0981
  24       3.884e-02      -6.374e-01      -7.150e-07           0.000           0.000           1.000       2.551e-05          0.2631
  25       3.131e-02      -6.374e-01      -4.256e-07           0.000           0.001           1.000       8.671e-06          0.6360
Strip 3
  26       2.392e-01      -6.354e-01       2.731e-09           0.000          -0.000           1.000       3.711e-06          0.0037
  27       2.345e-01      -6.354e-01       4.915e-09          -0.000          -0.000           1.000       1.092e-05          0.0059
  28       2.238e-01      -6.354e-01      -3.388e-09           0.000           0.000           1.000       1.749e-05          0.0084
  29       2.077e-01      -6.354e-01       1.982e-08          -0.000          -0.000           1.000       2.305e-05          0.0111
  30       1.871e-01      -6.354e-01       3.308e-08           0.000           0.000           1.000       2.726e-05          0.0143
  31       1.633e-01      -6.354e-01       3.131e-07           0.000           0.000           1.000       2.989e-05          0.0183
  32       1.376e-01      -6.354e-01       9.021e-07           0.000          -0.000           1.000       3.079e-05          0.0232
  33       1.115e-01      -6.354e-01      -1.214e-08          -0.000          -0.000           1.000       2.989e-05          0.0289
  34       8.651e-02      -6.354e-01      -1.580e-06           0.000           0.000           1.000       2.726e-05          0.0397
  35       6.414e-02      -6.354e-01       2.036e-06          -0.000          -0.000           1.000       2.305e-05          0.0622
  36       4.566e-02      -6.354e-01      -2.427e-07          -0.000          -0.000           1.000       1.749e-05          0.1340
  37       3.213e-02      -6.354e-01      -7.388e-07           0.000           0.000           1.000       1.092e-05          0.2632
  38       2.435e-02      -6.354e-01      -4.398e-07           0.000           0.000           1.000       3.711e-06          0.7349
Strip 4
  39       2.392e-01      -6.334e-01       2.775e-09           0.000          -0.000           1.000       9.103e-06          0.0043
  40       2.344e-01      -6.334e-01       4.994e-09          -0.000          -0.000           1.000       2.678e-05          0.0070
  41       2.235e-01      -6.334e-01      -3.443e-09           0.000           0.000           1.000       4.290e-05          0.0100
  42       2.071e-01      -6.334e-01       2.014e-08          -0.000          -0.000           1.000       5.653e-05          0.0132
  43       1.862e-01      -6.334e-01       3.361e-08           0.000           0.000           1.000       6.687e-05          0.0171
  44       1.620e-01      -6.334e-01       3.181e-07           0.000           0.000           1.000       7.333e-05          0.0219
  45       1.359e-01      -6.334e-01       9.166e-07           0.000          -0.000           1.000       7.552e-05          0.0279
  46       1.094e-01      -6.334e-01      -1.233e-08          -0.000          -0.000           1.000       7.333e-05          0.0352
  47       8.405e-02      -6.334e-01      -1.605e-06           0.000           0.000           1.000       6.687e-05          0.0489
  48       6.132e-02      -6.334e-01       2.069e-06          -0.000          -0.000           1.000       5.653e-05          0.0775
  49       4.254e-02      -6.334e-01      -2.466e-07          -0.000          -0.000           1.000       4.290e-05          0.1506
  50       2.879e-02      -6.334e-01      -7.507e-07           0.000           0.000           1.000       2.678e-05          0.3012
  51       2.089e-02      -6.334e-01      -4.469e-07           0.000           0.000           1.000       9.103e-06          0.8115
Strip 5
  52       2.392e-01      -6.314e-01       2.815e-09           0.000          -0.000           1.000       3.825e-06          0.0047
  53       2.343e-01      -6.314e-01       5.066e-09          -0.000          -0.000           1.000       1.125e-05          0.0078
  54       2.233e-01      -6.314e-01      -3.492e-09           0.000           0.000           1.000       1.803e-05          0.0112
  55       2.067e-01      -6.314e-01       2.043e-08          -0.000          -0.000           1.000       2.375e-05          0.0150
  56       1.855e-01      -6.314e-01       3.410e-08           0.000           0.000           1.000       2.810e-05          0.0194
  57       1.609e-01      -6.314e-01       3.227e-07           0.000           0.000           1.000       3.081e-05          0.0249
  58       1.344e-01      -6.314e-01       9.299e-07           0.000          -0.000           1.000       3.174e-05          0.0319
  59       1.075e-01      -6.314e-01      -1.251e-08          -0.000          -0.000           1.000       3.081e-05          0.0405
  60       8.179e-02      -6.314e-01      -1.629e-06           0.000           0.000           1.000       2.810e-05          0.0569
  61       5.873e-02      -6.314e-01       2.099e-06          -0.000          -0.000           1.000       2.375e-05          0.0904
  62       3.968e-02      -6.314e-01      -2.502e-07          -0.000          -0.000           1.000       1.803e-05          0.1673
  63       2.574e-02      -6.314e-01      -7.615e-07           0.000           0.000           1.000       1.125e-05          0.3261
  64       1.772e-02      -6.314e-01      -4.534e-07           0.000           0.000           1.000       3.825e-06          0.8459
Strip 6
  65       2.392e-01      -6.294e-01       2.846e-09           0.000          -0.000           1.000       9.338e-06          0.0051
  66       2.343e-01      -6.294e-01       5.122e-09          -0.000          -0.000           1.000       2.747e-05          0.0086
  67       2.231e-01      -6.294e-01      -3.531e-09           0.000           0.000           1.000       4.401e-05          0.0124
  68       2.063e-01      -6.294e-01       2.065e-08          -0.000          -0.000           1.000       5.799e-05          0.0166
  69       1.849e-01      -6.294e-01       3.448e-08           0.000           0.000           1.000       6.860e-05          0.0215
  70       1.600e-01      -6.294e-01       3.263e-07           0.000           0.000           1.000       7.522e-05          0.0277
  71       1.332e-01      -6.294e-01       9.402e-07           0.000          -0.000           1.000       7.747e-05          0.0357
  72       1.060e-01      -6.294e-01      -1.265e-08          -0.000          -0.000           1.000       7.522e-05          0.0456
  73       8.003e-02      -6.294e-01      -1.647e-06           0.000           0.000           1.000       6.860e-05          0.0644
  74       5.672e-02      -6.294e-01       2.122e-06          -0.000          -0.000           1.000       5.799e-05          0.1022
  75       3.745e-02      -6.294e-01      -2.530e-07          -0.000          -0.000           1.000       4.401e-05          0.1818
  76       2.335e-02      -6.294e-01      -7.700e-07           0.000           0.000           1.000       2.747e-05          0.3492
  77       1.524e-02      -6.294e-01      -4.584e-07           0.000           0.000           1.000       9.338e-06          0.8813
Strip 7
  78       2.392e-01      -6.277e-01       2.871e-09           0.000          -0.000           1.000       1.785e-06          0.0054
  79       2.342e-01      -6.277e-01       5.167e-09          -0.000          -0.000           1.000       5.250e-06          0.0091
  80       2.229e-01      -6.277e-01      -3.562e-09           0.000           0.000           1.000       8.410e-06          0.0132
  81       2.060e-01      -6.277e-01       2.083e-08          -0.000          -0.000           1.000       1.108e-05          0.0177
  82       1.844e-01      -6.277e-01       3.477e-08           0.000           0.000           1.000       1.311e-05          0.0229
  83       1.593e-01      -6.277e-01       3.291e-07           0.000           0.000           1.000       1.438e-05          0.0296
  84       1.323e-01      -6.277e-01       9.483e-07           0.000          -0.000           1.000       1.481e-05          0.0381
  85       1.049e-01      -6.277e-01      -1.276e-08          -0.000          -0.000           1.000       1.438e-05          0.0489
  86       7.865e-02      -6.277e-01      -1.661e-06           0.000           0.000           1.000       1.311e-05          0.0694
  87       5.513e-02      -6.277e-01       2.141e-06          -0.000          -0.000           1.000       1.108e-05          0.1093
  88       3.570e-02      -6.277e-01      -2.552e-07          -0.000          -0.000           1.000       8.410e-06          0.1906
  89       2.148e-02      -6.277e-01      -7.767e-07           0.000           0.000           1.000       5.250e-06          0.3603
  90       1.330e-02      -6.277e-01      -4.624e-07           0.000           0.000           1.000       1.785e-06          0.9083
Strip 8
  91       2.392e-01      -6.267e-01       2.880e-09           0.000          -0.000           1.000       4.892e-06          0.0056
  92       2.342e-01      -6.267e-01       5.184e-09          -0.000          -0.000           1.000       1.439e-05          0.0095
  93       2.229e-01      -6.267e-01      -3.574e-09           0.000           0.000           1.000       2.305e-05          0.0139
  94       2.059e-01      -6.267e-01       2.090e-08          -0.000          -0.000           1.000       3.038e-05          0.0186
  95       1.842e-01      -6.267e-01       3.489e-08           0.000           0.000           1.000       3.593e-05          0.0242
  96       1.591e-01      -6.267e-01       3.302e-07           0.000           0.000           1.000       3.940e-05          0.0313
  97       1.320e-01      -6.267e-01       9.514e-07           0.000          -0.000           1.000       4.058e-05          0.0404
  98       1.044e-01      -6.267e-01      -1.280e-08          -0.000          -0.000           1.000       3.940e-05          0.0520
  99       7.812e-02      -6.267e-01      -1.666e-06           0.000           0.000           1.000       3.593e-05          0.0739
 100       5.452e-02      -6.267e-01       2.148e-06          -0.000          -0.000           1.000       3.038e-05          0.1156
 101       3.503e-02      -6.267e-01      -2.560e-07          -0.000          -0.000           1.000       2.305e-05          0.1980
 102       2.076e-02      -6.267e-01      -7.792e-07           0.000           0.000           1.000       1.439e-05          0.3659
 103       1.255e-02      -6.267e-01      -4.639e-07           0.000           0.000           1.000       4.892e-06          0.9549
Strip 9
 104       2.392e-01      -6.250e-01       2.896e-09           0.000          -0.000           1.000       6.720e-06          0.0059
 105       2.342e-01      -6.250e-01       5.213e-09          -0.000          -0.000           1.000       1.977e-05          0.0101
 106       2.228e-01      -6.250e-01      -3.594e-09           0.000           0.000           1.000       3.167e-05          0.0147
 107       2.057e-01      -6.250e-01       2.102e-08          -0.000          -0.000           1.000       4.173e-05          0.0199
 108       1.839e-01      -6.250e-01       3.509e-08           0.000           0.000           1.000       4.936e-05          0.0259
 109       1.586e-01      -6.250e-01       3.320e-07           0.000           0.000           1.000       5.413e-05          0.0334
 110       1.313e-01      -6.250e-01       9.568e-07           0.000          -0.000           1.000       5.575e-05          0.0432
 111       1.037e-01      -6.250e-01      -1.288e-08          -0.000          -0.000           1.000       5.413e-05          0.0559
 112       7.720e-02      -6.250e-01      -1.676e-06           0.000           0.000           1.000       4.936e-05          0.0796
 113       5.348e-02      -6.250e-01       2.160e-06          -0.000          -0.000           1.000       4.173e-05          0.1233
 114       3.387e-02      -6.250e-01      -2.575e-07          -0.000          -0.000           1.000       3.167e-05          0.2068
 115       1.952e-02      -6.250e-01      -7.836e-07           0.000           0.000           1.000       1.977e-05          0.3785
 116       1.127e-02      -6.250e-01      -4.665e-07           0.000           0.000           1.000       6.720e-06          0.9951
Strip 10
 117       2.392e-01      -6.239e-01       2.906e-09           0.000          -0.000           1.000       4.595e-07          0.0060
 118       2.341e-01      -6.239e-01       5.231e-09          -0.000          -0.000           1.000       1.352e-06          0.0103
 119       2.227e-01      -6.239e-01      -3.606e-09           0.000           0.000           1.000       2.166e-06          0.0151
 120       2.056e-01      -6.239e-01       2.109e-08          -0.000          -0.000           1.000       2.854e-06          0.0203
 121       1.837e-01      -6.239e-01       3.521e-08           0.000           0.000           1.000       3.376e-06          0.0265
 122       1.583e-01      -6.239e-01       3.332e-07           0.000           0.000           1.000       3.702e-06          0.0342
 123       1.310e-01      -6.239e-01       9.601e-07           0.000          -0.000           1.000       3.812e-06          0.0443
 124       1.032e-01      -6.239e-01      -1.292e-08          -0.000          -0.000           1.000       3.702e-06          0.0573
 125       7.664e-02      -6.239e-01      -1.682e-06           0.000           0.000           1.000       3.376e-06          0.0817
 126       5.283e-02      -6.239e-01       2.167e-06          -0.000          -0.000           1.000       2.854e-06          0.1261
 127       3.316e-02      -6.239e-01      -2.584e-07          -0.000          -0.000           1.000       2.166e-06          0.2103
 128       1.876e-02      -6.239e-01      -7.863e-07           0.000           0.000           1.000       1.352e-06          0.3844
 129       1.048e-02      -6.239e-01      -4.681e-07           0.000           0.000           1.000       4.595e-07          1.0001
Strip 11
 130       2.392e-01      -6.237e-01       2.909e-09           0.000           0.000           1.000       1.348e-06          0.0061
 131       2.341e-01      -6.237e-01       5.236e-09          -0.000          -0.000           1.000       3.967e-06          0.0105
 132       2.227e-01      -6.237e-01      -3.609e-09           0.000           0.000           1.000       6.355e-06          0.0154
 133       2.056e-01      -6.237e-01       2.111e-08          -0.000          -0.000           1.000       8.373e-06          0.0207
 134       1.836e-01      -6.237e-01       3.524e-08           0.000           0.000           1.000       9.905e-06          0.0270
 135       1.583e-01      -6.237e-01       3.335e-07           0.000           0.000           1.000       1.086e-05          0.0349
 136       1.309e-01      -6.237e-01       9.610e-07           0.000          -0.000           1.000       1.119e-05          0.0452
 137       1.031e-01      -6.237e-01      -1.293e-08          -0.000          -0.000           1.000       1.086e-05          0.0586
 138       7.650e-02      -6.237e-01      -1.683e-06           0.000           0.000           1.000       9.905e-06          0.0835
 139       5.267e-02      -6.237e-01       2.169e-06          -0.000          -0.000           1.000       8.373e-06          0.1286
 140       3.298e-02      -6.237e-01      -2.586e-07          -0.000          -0.000           1.000       6.355e-06          0.2136
 141       1.857e-02      -6.237e-01      -7.870e-07           0.000           0.000           1.000       3.967e-06          0.3898
 142       1.028e-02      -6.237e-01      -4.685e-07           0.000           0.000           1.000       1.348e-06          1.0054
Strip 12
 143       2.392e-01      -6.231e-01       2.914e-09           0.000          -0.000           1.000       2.149e-06          0.0062
 144       2.341e-01      -6.231e-01       5.244e-09          -0.000          -0.000           1.000       6.321e-06          0.0107
 145       2.227e-01      -6.231e-01      -3.615e-09           0.000           0.000           1.000       1.013e-05          0.0157
 146       2.055e-01      -6.231e-01       2.115e-08          -0.000          -0.000           1.000       1.334e-05          0.0212
 147       1.835e-01      -6.231e-01       3.530e-08           0.000           0.000           1.000       1.578e-05          0.0277
 148       1.581e-01      -6.231e-01       3.340e-07           0.000           0.000           1.000       1.731e-05          0.0358
 149       1.307e-01      -6.231e-01       9.626e-07           0.000          -0.000           1.000       1.783e-05          0.0464
 150       1.029e-01      -6.231e-01      -1.295e-08          -0.000          -0.000           1.000       1.731e-05          0.0601
 151       7.622e-02      -6.231e-01      -1.686e-06           0.000           0.000           1.000       1.578e-05          0.0858
 152       5.236e-02      -6.231e-01       2.173e-06          -0.000          -0.000           1.000       1.334e-05          0.1317
 153       3.263e-02      -6.231e-01      -2.590e-07          -0.000          -0.000           1.000       1.013e-05          0.2176
 154       1.820e-02      -6.231e-01      -7.883e-07           0.000           0.000           1.000       6.321e-06          0.3964
 155       9.895e-03      -6.231e-01      -4.693e-07           0.000           0.000           1.000       2.149e-06          1.0102
Strip 13
 156       2.392e-01      -6.224e-01       2.921e-09           0.000          -0.000           1.000       2.807e-06          0.0064
 157       2.341e-01      -6.224e-01       5.257e-09          -0.000          -0.000           1.000       8.257e-06          0.0109
 158       2.227e-01      -6.224e-01      -3.624e-09           0.000           0.000           1.000       1.323e-05          0.0161
 159       2.054e-01      -6.224e-01       2.120e-08          -0.000          -0.000           1.000       1.743e-05          0.0218
 160       1.834e-01      -6.224e-01       3.538e-08           0.000           0.000           1.000       2.062e-05          0.0284
 161       1.579e-01      -6.224e-01       3.348e-07           0.000           0.000           1.000       2.261e-05          0.0368
 162       1.304e-01      -6.224e-01       9.648e-07           0.000          -0.000           1.000       2.329e-05          0.0477
 163       1.025e-01      -6.224e-01      -1.298e-08          -0.000          -0.000           1.000       2.261e-05          0.0620
 164       7.584e-02      -6.224e-01      -1.690e-06           0.000           0.000           1.000       2.062e-05          0.0884
 165       5.191e-02      -6.224e-01       2.178e-06          -0.000          -0.000           1.000       1.743e-05          0.1353
 166       3.214e-02      -6.224e-01      -2.596e-07          -0.000          -0.000           1.000       1.323e-05          0.2224
 167       1.767e-02      -6.224e-01      -7.902e-07           0.000           0.000           1.000       8.257e-06          0.4043
 168       9.352e-03      -6.224e-01      -4.704e-07           0.000           0.000           1.000       2.807e-06          1.0130
Strip 14
 169       2.392e-01      -6.215e-01       2.929e-09           0.000          -0.000           1.000       3.278e-06          0.0065
 170       2.341e-01      -6.215e-01       5.272e-09          -0.000          -0.000           1.000       9.643e-06          0.0112
 171       2.226e-01      -6.215e-01      -3.634e-09           0.000           0.000           1.000       1.545e-05          0.0166
 172       2.053e-01      -6.215e-01       2.126e-08          -0.000          -0.000           1.000       2.036e-05          0.0224
 173       1.833e-01      -6.215e-01       3.548e-08           0.000           0.000           1.000       2.408e-05          0.0293
 174       1.577e-01      -6.215e-01       3.358e-07           0.000           0.000           1.000       2.640e-05          0.0379
 175       1.301e-01      -6.215e-01       9.676e-07           0.000          -0.000           1.000       2.719e-05          0.0492
 176       1.021e-01      -6.215e-01      -1.302e-08          -0.000          -0.000           1.000       2.640e-05          0.0640
 177       7.536e-02      -6.215e-01      -1.695e-06           0.000           0.000           1.000       2.408e-05          0.0914
 178       5.137e-02      -6.215e-01       2.184e-06          -0.000          -0.000           1.000       2.036e-05          0.1393
 179       3.154e-02      -6.215e-01      -2.604e-07          -0.000          -0.000           1.000       1.545e-05          0.2279
 180       1.703e-02      -6.215e-01      -7.925e-07           0.000           0.000           1.000       9.643e-06          0.4134
 181       8.687e-03      -6.215e-01      -4.718e-07           0.000           0.000           1.000       3.278e-06          1.0128
Strip 15
 182       2.391e-01      -6.205e-01       2.938e-09           0.000          -0.000           1.000       3.529e-06          0.0067
 183       2.341e-01      -6.205e-01       5.289e-09          -0.000          -0.000           1.000       1.038e-05          0.0115
 184       2.225e-01      -6.205e-01      -3.646e-09           0.000           0.000           1.000       1.663e-05          0.0170
 185       2.052e-01      -6.205e-01       2.132e-08          -0.000          -0.000           1.000       2.191e-05          0.0230
 186       1.831e-01      -6.205e-01       3.560e-08           0.000           0.000           1.000       2.592e-05          0.0301
 187       1.574e-01      -6.205e-01       3.369e-07           0.000           0.000           1.000       2.843e-05          0.0390
 188       1.298e-01      -6.205e-01       9.707e-07           0.000          -0.000           1.000       2.928e-05          0.0507
 189       1.017e-01      -6.205e-01      -1.306e-08          -0.000          -0.000           1.000       2.843e-05          0.0661
 190       7.484e-02      -6.205e-01      -1.700e-06           0.000           0.000           1.000       2.592e-05          0.0943
 191       5.076e-02      -6.205e-01       2.191e-06          -0.000          -0.000           1.000       2.191e-05          0.1433
 192       3.087e-02      -6.205e-01      -2.612e-07          -0.000          -0.000           1.000       1.663e-05          0.2336
 193       1.632e-02      -6.205e-01      -7.950e-07           0.000           0.000           1.000       1.038e-05          0.4224
 194       7.945e-03      -6.205e-01      -4.733e-07           0.000           0.000           1.000       3.529e-06          1.0110
Strip 16
 195       2.391e-01      -6.200e-01       2.943e-09           0.000          -0.000           1.000       1.168e-07          0.0067
 196       2.341e-01      -6.200e-01       5.298e-09          -0.000          -0.000           1.000       3.437e-07          0.0116
 197       2.225e-01      -6.200e-01      -3.652e-09           0.000           0.000           1.000       5.507e-07          0.0171
 198       2.051e-01      -6.200e-01       2.136e-08          -0.000          -0.000           1.000       7.256e-07          0.0232
 199       1.830e-01      -6.200e-01       3.566e-08           0.000           0.000           1.000       8.583e-07          0.0303
 200       1.573e-01      -6.200e-01       3.374e-07           0.000           0.000           1.000       9.412e-07          0.0393
 201       1.296e-01      -6.200e-01       9.724e-07           0.000          -0.000           1.000       9.694e-07          0.0511
 202       1.015e-01      -6.200e-01      -1.309e-08          -0.000          -0.000           1.000       9.412e-07          0.0666
 203       7.456e-02      -6.200e-01      -1.703e-06           0.000           0.000           1.000       8.583e-07          0.0950
 204       5.044e-02      -6.200e-01       2.195e-06          -0.000          -0.000           1.000       7.256e-07          0.1443
 205       3.052e-02      -6.200e-01      -2.617e-07          -0.000          -0.000           1.000       5.507e-07          0.2348
 206       1.594e-02      -6.200e-01      -7.963e-07           0.000           0.000           1.000       3.437e-07          0.4238
 207       7.552e-03      -6.200e-01      -4.741e-07           0.000           0.000           1.000       1.168e-07          1.0121
Strip 17
 208       2.391e-01      -6.199e-01       2.944e-09           0.000           0.000           1.000       3.486e-07          0.0067
 209       2.341e-01      -6.199e-01       5.299e-09          -0.000          -0.000           1.000       1.025e-06          0.0116
 210       2.225e-01      -6.199e-01      -3.653e-09           0.000           0.000           1.000       1.643e-06          0.0172
 211       2.051e-01      -6.199e-01       2.136e-08          -0.000          -0.000           1.000       2.165e-06          0.0233
 212       1.830e-01      -6.199e-01       3.566e-08           0.000           0.000           1.000       2.561e-06          0.0305
 213       1.573e-01      -6.199e-01       3.375e-07           0.000           0.000           1.000       2.808e-06          0.0396
 214       1.296e-01      -6.199e-01       9.725e-07           0.000          -0.000           1.000       2.892e-06          0.0514
 215       1.014e-01      -6.199e-01      -1.309e-08          -0.000          -0.000           1.000       2.808e-06          0.0671
 216       7.453e-02      -6.199e-01      -1.703e-06           0.000           0.000           1.000       2.561e-06          0.0957
 217       5.042e-02      -6.199e-01       2.195e-06          -0.000          -0.000           1.000       2.165e-06          0.1451
 218       3.049e-02      -6.199e-01      -2.617e-07          -0.000          -0.000           1.000       1.643e-06          0.2360
 219       1.591e-02      -6.199e-01      -7.965e-07           0.000           0.000           1.000       1.025e-06          0.4253
 220       7.519e-03      -6.199e-01      -4.742e-07           0.000           0.000           1.000       3.486e-07          1.0145
Strip 18
 221       2.391e-01      -6.198e-01       2.945e-09           0.000          -0.000           1.000       5.745e-07          0.0068
 222       2.341e-01      -6.198e-01       5.300e-09          -0.000          -0.000           1.000       1.690e-06          0.0117
 223       2.225e-01      -6.198e-01      -3.654e-09           0.000           0.000           1.000       2.708e-06          0.0173
 224       2.051e-01      -6.198e-01       2.137e-08          -0.000          -0.000           1.000       3.568e-06          0.0235
 225       1.830e-01      -6.198e-01       3.567e-08           0.000           0.000           1.000       4.220e-06          0.0307
 226       1.573e-01      -6.198e-01       3.376e-07           0.000           0.000           1.000       4.628e-06          0.0399
 227       1.295e-01      -6.198e-01       9.728e-07           0.000          -0.000           1.000       4.766e-06          0.0518
 228       1.014e-01      -6.198e-01      -1.309e-08          -0.000          -0.000           1.000       4.628e-06          0.0676
 229       7.449e-02      -6.198e-01      -1.704e-06           0.000           0.000           1.000       4.220e-06          0.0965
 230       5.036e-02      -6.198e-01       2.196e-06          -0.000          -0.000           1.000       3.568e-06          0.1462
 231       3.043e-02      -6.198e-01      -2.618e-07          -0.000          -0.000           1.000       2.708e-06          0.2374
 232       1.584e-02      -6.198e-01      -7.967e-07           0.000           0.000           1.000       1.690e-06          0.4268
 233       7.452e-03      -6.198e-01      -4.743e-07           0.000           0.000           1.000       5.745e-07          1.0179
Strip 19
 234       2.391e-01      -6.196e-01       2.946e-09           0.000          -0.000           1.000       7.908e-07          0.0068
 235       2.341e-01      -6.196e-01       5.302e-09          -0.000          -0.000           1.000       2.327e-06          0.0118
 236       2.225e-01      -6.196e-01      -3.655e-09           0.000           0.000           1.000       3.727e-06          0.0175
 237       2.051e-01      -6.196e-01       2.138e-08          -0.000          -0.000           1.000       4.911e-06          0.0237
 238       1.829e-01      -6.196e-01       3.569e-08           0.000           0.000           1.000       5.809e-06          0.0310
 239       1.572e-01      -6.196e-01       3.377e-07           0.000           0.000           1.000       6.370e-06          0.0402
 240       1.295e-01      -6.196e-01       9.732e-07           0.000          -0.000           1.000       6.561e-06          0.0523
 241       1.013e-01      -6.196e-01      -1.310e-08          -0.000          -0.000           1.000       6.370e-06          0.0682
 242       7.442e-02      -6.196e-01      -1.704e-06           0.000           0.000           1.000       5.809e-06          0.0973
 243       5.028e-02      -6.196e-01       2.197e-06          -0.000          -0.000           1.000       4.911e-06          0.1473
 244       3.034e-02      -6.196e-01      -2.619e-07          -0.000          -0.000           1.000       3.727e-06          0.2389
 245       1.575e-02      -6.196e-01      -7.970e-07           0.000           0.000           1.000       2.327e-06          0.4282
 246       7.353e-03      -6.196e-01      -4.745e-07           0.000           0.000           1.000       7.908e-07          1.0226
Strip 20
 247       2.391e-01      -6.193e-01       2.948e-09           0.000          -0.000           1.000       9.939e-07          0.0069
 248       2.341e-01      -6.193e-01       5.305e-09          -0.000          -0.000           1.000       2.924e-06          0.0119
 249       2.225e-01      -6.193e-01      -3.657e-09           0.000           0.000           1.000       4.684e-06          0.0176
 250       2.051e-01      -6.193e-01       2.139e-08          -0.000          -0.000           1.000       6.172e-06          0.0239
 251       1.829e-01      -6.193e-01       3.571e-08           0.000           0.000           1.000       7.301e-06          0.0313
 252       1.572e-01      -6.193e-01       3.379e-07           0.000           0.000           1.000       8.006e-06          0.0406
 253       1.294e-01      -6.193e-01       9.737e-07           0.000          -0.000           1.000       8.246e-06          0.0528
 254       1.013e-01      -6.193e-01      -1.310e-08          -0.000          -0.000           1.000       8.006e-06          0.0689
 255       7.432e-02      -6.193e-01      -1.705e-06           0.000           0.000           1.000       7.301e-06          0.0983
 256       5.018e-02      -6.193e-01       2.198e-06          -0.000          -0.000           1.000       6.172e-06          0.1487
 257       3.022e-02      -6.193e-01      -2.620e-07          -0.000          -0.000           1.000       4.684e-06          0.2406
 258       1.562e-02      -6.193e-01      -7.975e-07           0.000           0.000           1.000       2.924e-06          0.4298
 259       7.224e-03      -6.193e-01      -4.748e-07           0.000           0.000           1.000       9.939e-07          1.0286
Strip 21
 260       2.391e-01      -6.190e-01       2.950e-09           0.000          -0.000           1.000       1.180e-06          0.0069
 261       2.341e-01      -6.190e-01       5.309e-09          -0.000          -0.000           1.000       3.473e-06          0.0120
 262       2.225e-01      -6.190e-01      -3.660e-09           0.000           0.000           1.000       5.563e-06          0.0178
 263       2.051e-01      -6.190e-01       2.141e-08          -0.000          -0.000           1.000       7.330e-06          0.0242
 264       1.829e-01      -6.190e-01       3.573e-08           0.000           0.000           1.000       8.671e-06          0.0316
 265       1.571e-01      -6.190e-01       3.381e-07           0.000           0.000           1.000       9.508e-06          0.0410
 266       1.293e-01      -6.190e-01       9.744e-07           0.000          -0.000           1.000       9.793e-06          0.0534
 267       1.012e-01      -6.190e-01      -1.311e-08          -0.000          -0.000           1.000       9.508e-06          0.0697
 268       7.421e-02      -6.190e-01      -1.707e-06           0.000           0.000           1.000       8.671e-06          0.0995
 269       5.005e-02      -6.190e-01       2.199e-06          -0.000          -0.000           1.000       7.330e-06          0.1501
 270       3.008e-02      -6.190e-01      -2.622e-07          -0.000          -0.000           1.000       5.563e-06          0.2425
 271       1.547e-02      -6.190e-01      -7.980e-07           0.000           0.000           1.000       3.473e-06          0.4315
 272       7.067e-03      -6.190e-01      -4.751e-07           0.000           0.000           1.000       1.180e-06          1.0355
Strip 22
 273       2.391e-01      -6.186e-01       2.952e-09           0.000          -0.000           1.000       1.347e-06          0.0070
 274       2.341e-01      -6.186e-01       5.313e-09          -0.000          -0.000           1.000       3.963e-06          0.0121
 275       2.225e-01      -6.186e-01      -3.663e-09           0.000           0.000           1.000       6.348e-06          0.0180
 276       2.050e-01      -6.186e-01       2.142e-08          -0.000          -0.000           1.000       8.365e-06          0.0244
 277       1.828e-01      -6.186e-01       3.576e-08           0.000           0.000           1.000       9.895e-06          0.0320
 278       1.570e-01      -6.186e-01       3.384e-07           0.000           0.000           1.000       1.085e-05          0.0415
 279       1.293e-01      -6.186e-01       9.752e-07           0.000          -0.000           1.000       1.118e-05          0.0540
 280       1.011e-01      -6.186e-01      -1.312e-08          -0.000          -0.000           1.000       1.085e-05          0.0706
 281       7.408e-02      -6.186e-01      -1.708e-06           0.000           0.000           1.000       9.895e-06          0.1007
 282       4.990e-02      -6.186e-01       2.201e-06          -0.000          -0.000           1.000       8.365e-06          0.1518
 283       2.992e-02      -6.186e-01      -2.624e-07          -0.000          -0.000           1.000       6.348e-06          0.2446
 284       1.530e-02      -6.186e-01      -7.986e-07           0.000           0.000           1.000       3.963e-06          0.4336
 285       6.884e-03      -6.186e-01      -4.755e-07           0.000           0.000           1.000       1.347e-06          1.0425
Strip 23
 286       2.391e-01      -6.182e-01       2.954e-09           0.000          -0.000           1.000       1.491e-06          0.0071
 287       2.341e-01      -6.182e-01       5.318e-09          -0.000          -0.000           1.000       4.386e-06          0.0123
 288       2.225e-01      -6.182e-01      -3.666e-09           0.000           0.000           1.000       7.027e-06          0.0182
 289       2.050e-01      -6.182e-01       2.144e-08          -0.000          -0.000           1.000       9.259e-06          0.0247
 290       1.828e-01      -6.182e-01       3.579e-08           0.000           0.000           1.000       1.095e-05          0.0324
 291       1.570e-01      -6.182e-01       3.387e-07           0.000           0.000           1.000       1.201e-05          0.0421
 292       1.292e-01      -6.182e-01       9.760e-07           0.000          -0.000           1.000       1.237e-05          0.0547
 293       1.009e-01      -6.182e-01      -1.313e-08          -0.000          -0.000           1.000       1.201e-05          0.0715
 294       7.394e-02      -6.182e-01      -1.709e-06           0.000           0.000           1.000       1.095e-05          0.1020
 295       4.973e-02      -6.182e-01       2.203e-06          -0.000          -0.000           1.000       9.259e-06          0.1535
 296       2.973e-02      -6.182e-01      -2.626e-07          -0.000          -0.000           1.000       7.027e-06          0.2468
 297       1.510e-02      -6.182e-01      -7.993e-07           0.000           0.000           1.000       4.386e-06          0.4362
 298       6.679e-03      -6.182e-01      -4.759e-07           0.000           0.000           1.000       1.491e-06          1.0493
Strip 24
 299       2.391e-01      -6.178e-01       2.957e-09           0.000          -0.000           1.000       1.610e-06          0.0071
 300       2.340e-01      -6.178e-01       5.323e-09          -0.000          -0.000           1.000       4.736e-06          0.0124
 301       2.224e-01      -6.178e-01      -3.669e-09           0.000           0.000           1.000       7.587e-06          0.0184
 302       2.050e-01      -6.178e-01       2.146e-08          -0.000          -0.000           1.000       9.997e-06          0.0251
 303       1.827e-01      -6.178e-01       3.582e-08           0.000           0.000           1.000       1.183e-05          0.0328
 304       1.569e-01      -6.178e-01       3.390e-07           0.000           0.000           1.000       1.297e-05          0.0426
 305       1.291e-01      -6.178e-01       9.770e-07           0.000          -0.000           1.000       1.336e-05          0.0555
 306       1.008e-01      -6.178e-01      -1.315e-08          -0.000          -0.000           1.000       1.297e-05          0.0726
 307       7.378e-02      -6.178e-01      -1.711e-06           0.000           0.000           1.000       1.183e-05          0.1034
 308       4.955e-02      -6.178e-01       2.205e-06          -0.000          -0.000           1.000       9.997e-06          0.1554
 309       2.953e-02      -6.178e-01      -2.629e-07          -0.000          -0.000           1.000       7.587e-06          0.2492
 310       1.488e-02      -6.178e-01      -8.001e-07           0.000           0.000           1.000       4.736e-06          0.4394
 311       6.456e-03      -6.178e-01      -4.763e-07           0.000           0.000           1.000       1.610e-06          1.0553
Strip 25
 312       2.391e-01      -6.173e-01       2.960e-09           0.000          -0.000           1.000       1.701e-06          0.0072
 313       2.340e-01      -6.173e-01       5.328e-09          -0.000          -0.000           1.000       5.005e-06          0.0125
 314       2.224e-01      -6.173e-01      -3.673e-09           0.000           0.000           1.000       8.019e-06          0.0187
 315       2.049e-01      -6.173e-01       2.148e-08          -0.000          -0.000           1.000       1.057e-05          0.0254
 316       1.826e-01      -6.173e-01       3.586e-08           0.000           0.000           1.000       1.250e-05          0.0333
 317       1.568e-01      -6.173e-01       3.394e-07           0.000           0.000           1.000       1.371e-05          0.0432
 318       1.289e-01      -6.173e-01       9.780e-07           0.000          -0.000           1.000       1.412e-05          0.0563
 319       1.007e-01      -6.173e-01      -1.316e-08          -0.000          -0.000           1.000       1.371e-05          0.0736
 320       7.361e-02      -6.173e-01      -1.713e-06           0.000           0.000           1.000       1.250e-05          0.1049
 321       4.936e-02      -6.173e-01       2.207e-06          -0.000          -0.000           1.000       1.057e-05          0.1573
 322       2.932e-02      -6.173e-01      -2.632e-07          -0.000          -0.000           1.000       8.019e-06          0.2516
 323       1.465e-02      -6.173e-01      -8.009e-07           0.000           0.000           1.000       5.005e-06          0.4431
 324       6.217e-03      -6.173e-01      -4.768e-07           0.000           0.000           1.000       1.701e-06          1.0606
Strip 26
 325       2.391e-01      -6.168e-01       2.963e-09           0.000          -0.000           1.000       1.764e-06          0.0073
 326       2.340e-01      -6.168e-01       5.334e-09          -0.000          -0.000           1.000       5.190e-06          0.0127
 327       2.224e-01      -6.168e-01      -3.677e-09           0.000           0.000           1.000       8.314e-06          0.0189
 328       2.049e-01      -6.168e-01       2.151e-08          -0.000          -0.000           1.000       1.096e-05          0.0257
 329       1.826e-01      -6.168e-01       3.590e-08           0.000           0.000           1.000       1.296e-05          0.0337
 330       1.567e-01      -6.168e-01       3.397e-07           0.000           0.000           1.000       1.421e-05          0.0438
 331       1.288e-01      -6.168e-01       9.790e-07           0.000          -0.000           1.000       1.464e-05          0.0571
 332       1.005e-01      -6.168e-01      -1.317e-08          -0.000          -0.000           1.000       1.421e-05          0.0747
 333       7.343e-02      -6.168e-01      -1.715e-06           0.000           0.000           1.000       1.296e-05          0.1064
 334       4.915e-02      -6.168e-01       2.210e-06          -0.000          -0.000           1.000       1.096e-05          0.1592
 335       2.909e-02      -6.168e-01      -2.634e-07          -0.000          -0.000           1.000       8.314e-06          0.2541
 336       1.441e-02      -6.168e-01      -8.018e-07           0.000           0.000           1.000       5.190e-06          0.4471
 337       5.968e-03      -6.168e-01      -4.773e-07           0.000           0.000           1.000       1.764e-06          1.0654
Strip 27
 338       2.391e-01      -6.163e-01       2.967e-09           0.000          -0.000           1.000       1.797e-06          0.0074
 339       2.340e-01      -6.163e-01       5.340e-09          -0.000          -0.000           1.000       5.286e-06          0.0128
 340       2.224e-01      -6.163e-01      -3.681e-09           0.000           0.000           1.000       8.468e-06          0.0191
 341       2.049e-01      -6.163e-01       2.153e-08          -0.000          -0.000           1.000       1.116e-05          0.0261
 342       1.825e-01      -6.163e-01       3.594e-08           0.000           0.000           1.000       1.320e-05          0.0342
 343       1.566e-01      -6.163e-01       3.401e-07           0.000           0.000           1.000       1.447e-05          0.0444
 344       1.287e-01      -6.163e-01       9.801e-07           0.000          -0.000           1.000       1.491e-05          0.0579
 345       1.004e-01      -6.163e-01      -1.319e-08          -0.000          -0.000           1.000       1.447e-05          0.0758
 346       7.325e-02      -6.163e-01      -1.717e-06           0.000           0.000           1.000       1.320e-05          0.1079
 347       4.894e-02      -6.163e-01       2.212e-06          -0.000          -0.000           1.000       1.116e-05          0.1611
 348       2.886e-02      -6.163e-01      -2.637e-07          -0.000          -0.000           1.000       8.468e-06          0.2565
 349       1.417e-02      -6.163e-01      -8.026e-07           0.000           0.000           1.000       5.286e-06          0.4510
 350       5.712e-03      -6.163e-01      -4.778e-07           0.000           0.000           1.000       1.797e-06          1.0706
Strip 28
 351       2.391e-01      -6.160e-01       2.968e-09           0.000           0.000           1.000       1.178e-07          0.0074
 352       2.340e-01      -6.160e-01       5.343e-09          -0.000          -0.000           1.000       3.467e-07          0.0129
 353       2.224e-01      -6.160e-01      -3.683e-09           0.000           0.000           1.000       5.553e-07          0.0192
 354       2.049e-01      -6.160e-01       2.154e-08          -0.000          -0.000           1.000       7.317e-07          0.0262
 355       1.825e-01      -6.160e-01       3.596e-08           0.000           0.000           1.000       8.656e-07          0.0343
 356       1.566e-01      -6.160e-01       3.403e-07           0.000           0.000           1.000       9.492e-07          0.0446
 357       1.286e-01      -6.160e-01       9.806e-07           0.000          -0.000           1.000       9.776e-07          0.0581
 358       1.003e-01      -6.160e-01      -1.320e-08          -0.000          -0.000           1.000       9.492e-07          0.0762
 359       7.315e-02      -6.160e-01      -1.717e-06           0.000           0.000           1.000       8.656e-07          0.1084
 360       4.884e-02      -6.160e-01       2.213e-06          -0.000          -0.000           1.000       7.317e-07          0.1617
 361       2.874e-02      -6.160e-01      -2.639e-07          -0.000          -0.000           1.000       5.553e-07          0.2573
 362       1.404e-02      -6.160e-01      -8.031e-07           0.000           0.000           1.000       3.467e-07          0.4520
 363       5.578e-03      -6.160e-01      -4.781e-07           0.000           0.000           1.000       1.178e-07          1.0738
Strip 29
 364       2.391e-01      -6.159e-01       2.969e-09           0.000          -0.000           1.000       3.515e-07          0.0074
 365       2.340e-01      -6.159e-01       5.343e-09          -0.000          -0.000           1.000       1.034e-06          0.0129
 366       2.224e-01      -6.159e-01      -3.683e-09           0.000           0.000           1.000       1.657e-06          0.0193
 367       2.048e-01      -6.159e-01       2.154e-08          -0.000          -0.000           1.000       2.183e-06          0.0263
 368       1.825e-01      -6.159e-01       3.596e-08           0.000           0.000           1.000       2.582e-06          0.0345
 369       1.566e-01      -6.159e-01       3.403e-07           0.000           0.000           1.000       2.832e-06          0.0448
 370       1.286e-01      -6.159e-01       9.807e-07           0.000          -0.000           1.000       2.916e-06          0.0584
 371       1.003e-01      -6.159e-01      -1.320e-08          -0.000          -0.000           1.000       2.832e-06          0.0765
 372       7.314e-02      -6.159e-01      -1.718e-06           0.000           0.000           1.000       2.582e-06          0.1088
 373       4.882e-02      -6.159e-01       2.214e-06          -0.000          -0.000           1.000       2.183e-06          0.1623
 374       2.873e-02      -6.159e-01      -2.639e-07          -0.000          -0.000           1.000       1.657e-06          0.2580
 375       1.402e-02      -6.159e-01      -8.032e-07           0.000           0.000           1.000       1.034e-06          0.4529
 376       5.561e-03      -6.159e-01      -4.781e-07           0.000           0.000           1.000       3.515e-07          1.0770
Strip 30
 377       2.391e-01      -6.158e-01       2.969e-09           0.000          -0.000           1.000       5.793e-07          0.0074
 378       2.340e-01      -6.158e-01       5.344e-09          -0.000          -0.000           1.000       1.704e-06          0.0130
 379       2.224e-01      -6.158e-01      -3.684e-09           0.000           0.000           1.000       2.730e-06          0.0194
 380       2.048e-01      -6.158e-01       2.155e-08          -0.000          -0.000           1.000       3.597e-06          0.0264
 381       1.825e-01      -6.158e-01       3.597e-08           0.000           0.000           1.000       4.255e-06          0.0346
 382       1.566e-01      -6.158e-01       3.404e-07           0.000           0.000           1.000       4.666e-06          0.0450
 383       1.286e-01      -6.158e-01       9.808e-07           0.000          -0.000           1.000       4.806e-06          0.0587
 384       1.002e-01      -6.158e-01      -1.320e-08          -0.000          -0.000           1.000       4.666e-06          0.0769
 385       7.312e-02      -6.158e-01      -1.718e-06           0.000           0.000           1.000       4.255e-06          0.1094
 386       4.879e-02      -6.158e-01       2.214e-06          -0.000          -0.000           1.000       3.597e-06          0.1630
 387       2.870e-02      -6.158e-01      -2.639e-07          -0.000          -0.000           1.000       2.730e-06          0.2589
 388       1.399e-02      -6.158e-01      -8.033e-07           0.000           0.000           1.000       1.704e-06          0.4539
 389       5.528e-03      -6.158e-01      -4.782e-07           0.000           0.000           1.000       5.793e-07          1.0817
Strip 31
 390       2.391e-01      -6.156e-01       2.970e-09           0.000          -0.000           1.000       7.972e-07          0.0075
 391       2.340e-01      -6.156e-01       5.345e-09          -0.000          -0.000           1.000       2.345e-06          0.0131
 392       2.224e-01      -6.156e-01      -3.685e-09           0.000           0.000           1.000       3.757e-06          0.0195
 393       2.048e-01      -6.156e-01       2.155e-08          -0.000          -0.000           1.000       4.951e-06          0.0266
 394       1.825e-01      -6.156e-01       3.597e-08           0.000           0.000           1.000       5.856e-06          0.0349
 395       1.565e-01      -6.156e-01       3.405e-07           0.000           0.000           1.000       6.422e-06          0.0453
 396       1.286e-01      -6.156e-01       9.810e-07           0.000          -0.000           1.000       6.614e-06          0.0591
 397       1.002e-01      -6.156e-01      -1.320e-08          -0.000          -0.000           1.000       6.422e-06          0.0774
 398       7.308e-02      -6.156e-01      -1.718e-06           0.000           0.000           1.000       5.856e-06          0.1101
 399       4.875e-02      -6.156e-01       2.214e-06          -0.000          -0.000           1.000       4.951e-06          0.1639
 400       2.865e-02      -6.156e-01      -2.640e-07          -0.000          -0.000           1.000       3.757e-06          0.2599
 401       1.394e-02      -6.156e-01      -8.034e-07           0.000           0.000           1.000       2.345e-06          0.4549
 402       5.479e-03      -6.156e-01      -4.783e-07           0.000           0.000           1.000       7.972e-07          1.0881
Strip 32
 403       2.391e-01      -6.153e-01       2.970e-09           0.000          -0.000           1.000       1.002e-06          0.0075
 404       2.340e-01      -6.153e-01       5.346e-09          -0.000          -0.000           1.000       2.947e-06          0.0132
 405       2.224e-01      -6.153e-01      -3.686e-09           0.000           0.000           1.000       4.721e-06          0.0196
 406       2.048e-01      -6.153e-01       2.156e-08          -0.000          -0.000           1.000       6.220e-06          0.0268
 407       1.825e-01      -6.153e-01       3.598e-08           0.000           0.000           1.000       7.358e-06          0.0351
 408       1.565e-01      -6.153e-01       3.405e-07           0.000           0.000           1.000       8.069e-06          0.0457
 409       1.286e-01      -6.153e-01       9.813e-07           0.000          -0.000           1.000       8.310e-06          0.0595
 410       1.002e-01      -6.153e-01      -1.321e-08          -0.000          -0.000           1.000       8.069e-06          0.0780
 411       7.304e-02      -6.153e-01      -1.719e-06           0.000           0.000           1.000       7.358e-06          0.1110
 412       4.870e-02      -6.153e-01       2.215e-06          -0.000          -0.000           1.000       6.220e-06          0.1650
 413       2.859e-02      -6.153e-01      -2.641e-07          -0.000          -0.000           1.000       4.721e-06          0.2612
 414       1.388e-02      -6.153e-01      -8.037e-07           0.000           0.000           1.000       2.947e-06          0.4561
 415       5.414e-03      -6.153e-01      -4.784e-07           0.000           0.000           1.000       1.002e-06          1.0964
Strip 33
 416       2.391e-01      -6.150e-01       2.971e-09           0.000           0.000           1.000       1.189e-06          0.0076
 417       2.340e-01      -6.150e-01       5.348e-09          -0.000          -0.000           1.000       3.498e-06          0.0133
 418       2.224e-01      -6.150e-01      -3.687e-09           0.000           0.000           1.000       5.604e-06          0.0198
 419       2.048e-01      -6.150e-01       2.156e-08          -0.000          -0.000           1.000       7.385e-06          0.0270
 420       1.824e-01      -6.150e-01       3.600e-08           0.000           0.000           1.000       8.736e-06          0.0354
 421       1.565e-01      -6.150e-01       3.407e-07           0.000           0.000           1.000       9.579e-06          0.0461
 422       1.285e-01      -6.150e-01       9.816e-07           0.000          -0.000           1.000       9.866e-06          0.0601
 423       1.001e-01      -6.150e-01      -1.321e-08          -0.000          -0.000           1.000       9.579e-06          0.0788
 424       7.298e-02      -6.150e-01      -1.719e-06           0.000           0.000           1.000       8.736e-06          0.1120
 425       4.864e-02      -6.150e-01       2.216e-06          -0.000          -0.000           1.000       7.385e-06          0.1662
 426       2.852e-02      -6.150e-01      -2.642e-07          -0.000          -0.000           1.000       5.604e-06          0.2626
 427       1.380e-02      -6.150e-01      -8.039e-07           0.000           0.000           1.000       3.498e-06          0.4574
 428       5.335e-03      -6.150e-01      -4.786e-07           0.000           0.000           1.000       1.189e-06          1.1063
Strip 34
 429       2.391e-01      -6.146e-01       2.973e-09           0.000          -0.000           1.000       1.357e-06          0.0076
 430       2.340e-01      -6.146e-01       5.350e-09          -0.000          -0.000           1.000       3.991e-06          0.0134
 431       2.223e-01      -6.146e-01      -3.688e-09           0.000           0.000           1.000       6.393e-06          0.0200
 432       2.048e-01      -6.146e-01       2.157e-08          -0.000          -0.000           1.000       8.424e-06          0.0273
 433       1.824e-01      -6.146e-01       3.601e-08           0.000           0.000           1.000       9.965e-06          0.0358
 434       1.565e-01      -6.146e-01       3.408e-07           0.000           0.000           1.000       1.093e-05          0.0466
 435       1.285e-01      -6.146e-01       9.820e-07           0.000          -0.000           1.000       1.125e-05          0.0607
 436       1.001e-01      -6.146e-01      -1.322e-08          -0.000          -0.000           1.000       1.093e-05          0.0796
 437       7.291e-02      -6.146e-01      -1.720e-06           0.000           0.000           1.000       9.965e-06          0.1131
 438       4.856e-02      -6.146e-01       2.217e-06          -0.000          -0.000           1.000       8.424e-06          0.1676
 439       2.844e-02      -6.146e-01      -2.643e-07          -0.000          -0.000           1.000       6.393e-06          0.2643
 440       1.371e-02      -6.146e-01      -8.043e-07           0.000           0.000           1.000       3.991e-06          0.4591
 441       5.244e-03      -6.146e-01      -4.788e-07           0.000           0.000           1.000       1.357e-06          1.1172
Strip 35
 442       2.391e-01      -6.142e-01       2.974e-09           0.000          -0.000           1.000       1.501e-06          0.0077
 443       2.340e-01      -6.142e-01       5.353e-09          -0.000          -0.000           1.000       4.415e-06          0.0135
 444       2.223e-01      -6.142e-01      -3.690e-09           0.000           0.000           1.000       7.073e-06          0.0202
 445       2.048e-01      -6.142e-01       2.158e-08          -0.000          -0.000           1.000       9.320e-06          0.0275
 446       1.824e-01      -6.142e-01       3.603e-08           0.000           0.000           1.000       1.103e-05          0.0362
 447       1.564e-01      -6.142e-01       3.409e-07           0.000           0.000           1.000       1.209e-05          0.0471
 448       1.284e-01      -6.142e-01       9.825e-07           0.000          -0.000           1.000       1.245e-05          0.0614
 449       1.000e-01      -6.142e-01      -1.322e-08          -0.000          -0.000           1.000       1.209e-05          0.0805
 450       7.284e-02      -6.142e-01      -1.721e-06           0.000           0.000           1.000       1.103e-05          0.1143
 451       4.848e-02      -6.142e-01       2.218e-06          -0.000          -0.000           1.000       9.320e-06          0.1692
 452       2.835e-02      -6.142e-01      -2.644e-07          -0.000          -0.000           1.000       7.073e-06          0.2661
 453       1.362e-02      -6.142e-01      -8.046e-07           0.000           0.000           1.000       4.415e-06          0.4611
 454       5.142e-03      -6.142e-01      -4.790e-07           0.000           0.000           1.000       1.501e-06          1.1286
Strip 36
 455       2.391e-01      -6.138e-01       2.975e-09           0.000          -0.000           1.000       1.620e-06          0.0078
 456       2.340e-01      -6.138e-01       5.355e-09          -0.000          -0.000           1.000       4.765e-06          0.0136
 457       2.223e-01      -6.138e-01      -3.692e-09           0.000           0.000           1.000       7.633e-06          0.0204
 458       2.048e-01      -6.138e-01       2.159e-08          -0.000          -0.000           1.000       1.006e-05          0.0279
 459       1.824e-01      -6.138e-01       3.604e-08           0.000           0.000           1.000       1.190e-05          0.0366
 460       1.564e-01      -6.138e-01       3.411e-07           0.000           0.000           1.000       1.305e-05          0.0476
 461       1.284e-01      -6.138e-01       9.829e-07           0.000          -0.000           1.000       1.344e-05          0.0621
 462       9.995e-02      -6.138e-01      -1.323e-08          -0.000          -0.000           1.000       1.305e-05          0.0815
 463       7.276e-02      -6.138e-01      -1.722e-06           0.000           0.000           1.000       1.190e-05          0.1156
 464       4.839e-02      -6.138e-01       2.219e-06          -0.000          -0.000           1.000       1.006e-05          0.1708
 465       2.825e-02      -6.138e-01      -2.645e-07          -0.000          -0.000           1.000       7.633e-06          0.2681
 466       1.351e-02      -6.138e-01      -8.050e-07           0.000           0.000           1.000       4.765e-06          0.4636
 467       5.030e-03      -6.138e-01      -4.792e-07           0.000           0.000           1.000       1.620e-06          1.1401
Strip 37
 468       2.391e-01      -6.133e-01       2.977e-09           0.000          -0.000           1.000       1.711e-06          0.0079
 469       2.340e-01      -6.133e-01       5.358e-09          -0.000          -0.000           1.000       5.033e-06          0.0138
 470       2.223e-01      -6.133e-01      -3.694e-09           0.000           0.000           1.000       8.063e-06          0.0206
 471       2.048e-01      -6.133e-01       2.160e-08          -0.000          -0.000           1.000       1.062e-05          0.0282
 472       1.823e-01      -6.133e-01       3.606e-08           0.000           0.000           1.000       1.257e-05          0.0371
 473       1.563e-01      -6.133e-01       3.413e-07           0.000           0.000           1.000       1.378e-05          0.0482
 474       1.283e-01      -6.133e-01       9.834e-07           0.000          -0.000           1.000       1.419e-05          0.0629
 475       9.988e-02      -6.133e-01      -1.323e-08          -0.000          -0.000           1.000       1.378e-05          0.0826
 476       7.268e-02      -6.133e-01      -1.722e-06           0.000           0.000           1.000       1.257e-05          0.1170
 477       4.829e-02      -6.133e-01       2.220e-06          -0.000          -0.000           1.000       1.062e-05          0.1726
 478       2.814e-02      -6.133e-01      -2.646e-07          -0.000          -0.000           1.000       8.063e-06          0.2702
 479       1.339e-02      -6.133e-01      -8.054e-07           0.000           0.000           1.000       5.033e-06          0.4665
 480       4.911e-03      -6.133e-01      -4.795e-07           0.000           0.000           1.000       1.711e-06          1.1514
Strip 38
 481       2.391e-01      -6.128e-01       2.978e-09           0.000          -0.000           1.000       1.773e-06          0.0079
 482       2.340e-01      -6.128e-01       5.361e-09          -0.000          -0.000           1.000       5.216e-06          0.0139
[...]
1281       1.029e-01       6.231e-01      -1.295e-08          -0.000           0.000           1.000       1.731e-05          0.0601
1282       7.622e-02       6.231e-01      -1.686e-06           0.000          -0.000           1.000       1.578e-05          0.0858
1283       5.236e-02       6.231e-01       2.173e-06          -0.000           0.000           1.000       1.334e-05          0.1317
1284       3.263e-02       6.231e-01      -2.590e-07          -0.000           0.000           1.000       1.013e-05          0.2176
1285       1.820e-02       6.231e-01      -7.883e-07           0.000          -0.000           1.000       6.321e-06          0.3964
1286       9.895e-03       6.231e-01      -4.693e-07           0.000          -0.000           1.000       2.149e-06          1.0102
Strip 100
1287       2.392e-01       6.237e-01       2.909e-09           0.000          -0.000           1.000       1.348e-06          0.0061
1288       2.341e-01       6.237e-01       5.236e-09          -0.000           0.000           1.000       3.967e-06          0.0105
1289       2.227e-01       6.237e-01      -3.609e-09           0.000          -0.000           1.000       6.355e-06          0.0154
1290       2.056e-01       6.237e-01       2.111e-08          -0.000           0.000           1.000       8.373e-06          0.0207
1291       1.836e-01       6.237e-01       3.524e-08           0.000          -0.000           1.000       9.905e-06          0.0270
1292       1.583e-01       6.237e-01       3.335e-07           0.000          -0.000           1.000       1.086e-05          0.0349
1293       1.309e-01       6.237e-01       9.610e-07           0.000           0.000           1.000       1.119e-05          0.0452
1294       1.031e-01       6.237e-01      -1.293e-08          -0.000           0.000           1.000       1.086e-05          0.0586
1295       7.650e-02       6.237e-01      -1.683e-06           0.000          -0.000           1.000       9.905e-06          0.0835
1296       5.267e-02       6.237e-01       2.169e-06          -0.000           0.000           1.000       8.373e-06          0.1286
1297       3.298e-02       6.237e-01      -2.586e-07          -0.000           0.000           1.000       6.355e-06          0.2136
1298       1.857e-02       6.237e-01      -7.870e-07           0.000          -0.000           1.000       3.967e-06          0.3898
1299       1.028e-02       6.237e-01      -4.685e-07           0.000          -0.000           1.000       1.348e-06          1.0054
Strip 101
1300       2.392e-01       6.239e-01       2.906e-09           0.000           0.000           1.000       4.595e-07          0.0060
1301       2.341e-01       6.239e-01       5.231e-09          -0.000           0.000           1.000       1.352e-06          0.0103
1302       2.227e-01       6.239e-01      -3.606e-09           0.000          -0.000           1.000       2.166e-06          0.0151
1303       2.056e-01       6.239e-01       2.109e-08          -0.000           0.000           1.000       2.854e-06          0.0203
1304       1.837e-01       6.239e-01       3.521e-08           0.000          -0.000           1.000       3.376e-06          0.0265
1305       1.583e-01       6.239e-01       3.332e-07           0.000          -0.000           1.000       3.702e-06          0.0342
1306       1.310e-01       6.239e-01       9.601e-07           0.000           0.000           1.000       3.812e-06          0.0443
1307       1.032e-01       6.239e-01      -1.292e-08          -0.000           0.000           1.000       3.702e-06          0.0573
1308       7.664e-02       6.239e-01      -1.682e-06           0.000          -0.000           1.000       3.376e-06          0.0817
1309       5.283e-02       6.239e-01       2.167e-06          -0.000           0.000           1.000       2.854e-06          0.1261
1310       3.316e-02       6.239e-01      -2.584e-07          -0.000           0.000           1.000       2.166e-06          0.2103
1311       1.876e-02       6.239e-01      -7.863e-07           0.000          -0.000           1.000       1.352e-06          0.3844
1312       1.048e-02       6.239e-01      -4.681e-07           0.000          -0.000           1.000       4.595e-07          1.0001
Strip 102
1313       2.392e-01       6.250e-01       2.896e-09           0.000           0.000           1.000       6.720e-06          0.0059
1314       2.342e-01       6.250e-01       5.213e-09          -0.000           0.000           1.000       1.977e-05          0.0101
1315       2.228e-01       6.250e-01      -3.594e-09           0.000          -0.000           1.000       3.167e-05          0.0147
1316       2.057e-01       6.250e-01       2.102e-08          -0.000           0.000           1.000       4.173e-05          0.0199
1317       1.839e-01       6.250e-01       3.509e-08           0.000          -0.000           1.000       4.936e-05          0.0259
1318       1.586e-01       6.250e-01       3.320e-07           0.000          -0.000           1.000       5.413e-05          0.0334
1319       1.313e-01       6.250e-01       9.568e-07           0.000           0.000           1.000       5.575e-05          0.0432
1320       1.037e-01       6.250e-01      -1.288e-08          -0.000           0.000           1.000       5.413e-05          0.0559
1321       7.720e-02       6.250e-01      -1.676e-06           0.000          -0.000           1.000       4.936e-05          0.0796
1322       5.348e-02       6.250e-01       2.160e-06          -0.000           0.000           1.000       4.173e-05          0.1233
1323       3.387e-02       6.250e-01      -2.575e-07          -0.000           0.000           1.000       3.167e-05          0.2068
1324       1.952e-02       6.250e-01      -7.836e-07           0.000          -0.000           1.000       1.977e-05          0.3785
1325       1.127e-02       6.250e-01      -4.665e-07           0.000          -0.000           1.000       6.720e-06          0.9951
Strip 103
1326       2.392e-01       6.267e-01       2.880e-09           0.000           0.000           1.000       4.892e-06          0.0056
1327       2.342e-01       6.267e-01       5.184e-09          -0.000           0.000           1.000       1.439e-05          0.0095
1328       2.229e-01       6.267e-01      -3.574e-09           0.000          -0.000           1.000       2.305e-05          0.0139
1329       2.059e-01       6.267e-01       2.090e-08          -0.000           0.000           1.000       3.038e-05          0.0186
1330       1.842e-01       6.267e-01       3.489e-08           0.000          -0.000           1.000       3.593e-05          0.0242
1331       1.591e-01       6.267e-01       3.302e-07           0.000          -0.000           1.000       3.940e-05          0.0313
1332       1.320e-01       6.267e-01       9.514e-07           0.000           0.000           1.000       4.058e-05          0.0404
1333       1.044e-01       6.267e-01      -1.280e-08          -0.000           0.000           1.000       3.940e-05          0.0520
1334       7.812e-02       6.267e-01      -1.666e-06           0.000          -0.000           1.000       3.593e-05          0.0739
1335       5.452e-02       6.267e-01       2.148e-06          -0.000           0.000           1.000       3.038e-05          0.1156
1336       3.503e-02       6.267e-01      -2.560e-07          -0.000           0.000           1.000       2.305e-05          0.1980
1337       2.076e-02       6.267e-01      -7.792e-07           0.000          -0.000           1.000       1.439e-05          0.3659
1338       1.255e-02       6.267e-01      -4.639e-07           0.000          -0.000           1.000       4.892e-06          0.9549
Strip 104
1339       2.392e-01       6.277e-01       2.871e-09           0.000           0.000           1.000       1.785e-06          0.0054
1340       2.342e-01       6.277e-01       5.167e-09          -0.000           0.000           1.000       5.250e-06          0.0091
1341       2.229e-01       6.277e-01      -3.562e-09           0.000          -0.000           1.000       8.410e-06          0.0132
1342       2.060e-01       6.277e-01       2.083e-08          -0.000           0.000           1.000       1.108e-05          0.0177
1343       1.844e-01       6.277e-01       3.477e-08           0.000          -0.000           1.000       1.311e-05          0.0229
1344       1.593e-01       6.277e-01       3.291e-07           0.000          -0.000           1.000       1.438e-05          0.0296
1345       1.323e-01       6.277e-01       9.483e-07           0.000           0.000           1.000       1.481e-05          0.0381
1346       1.049e-01       6.277e-01      -1.276e-08          -0.000           0.000           1.000       1.438e-05          0.0489
1347       7.865e-02       6.277e-01      -1.661e-06           0.000          -0.000           1.000       1.311e-05          0.0694
1348       5.513e-02       6.277e-01       2.141e-06          -0.000           0.000           1.000       1.108e-05          0.1093
1349       3.570e-02       6.277e-01      -2.552e-07          -0.000           0.000           1.000       8.410e-06          0.1906
1350       2.148e-02       6.277e-01      -7.767e-07           0.000          -0.000           1.000       5.250e-06          0.3603
1351       1.330e-02       6.277e-01      -4.624e-07           0.000          -0.000           1.000       1.785e-06          0.9083
Strip 105
1352       2.392e-01       6.294e-01       2.846e-09           0.000           0.000           1.000       9.338e-06          0.0051
1353       2.343e-01       6.294e-01       5.122e-09          -0.000           0.000           1.000       2.747e-05          0.0086
1354       2.231e-01       6.294e-01      -3.531e-09           0.000          -0.000           1.000       4.401e-05          0.0124
1355       2.063e-01       6.294e-01       2.065e-08          -0.000           0.000           1.000       5.799e-05          0.0166
1356       1.849e-01       6.294e-01       3.448e-08           0.000          -0.000           1.000       6.860e-05          0.0215
1357       1.600e-01       6.294e-01       3.263e-07           0.000          -0.000           1.000       7.522e-05          0.0277
1358       1.332e-01       6.294e-01       9.402e-07           0.000           0.000           1.000       7.747e-05          0.0357
1359       1.060e-01       6.294e-01      -1.265e-08          -0.000           0.000           1.000       7.522e-05          0.0456
1360       8.003e-02       6.294e-01      -1.647e-06           0.000          -0.000           1.000       6.860e-05          0.0644
1361       5.672e-02       6.294e-01       2.122e-06          -0.000           0.000           1.000       5.799e-05          0.1022
1362       3.745e-02       6.294e-01      -2.530e-07          -0.000           0.000           1.000       4.401e-05          0.1818
1363       2.335e-02       6.294e-01      -7.700e-07           0.000          -0.000           1.000       2.747e-05          0.3492
1364       1.524e-02       6.294e-01      -4.584e-07           0.000          -0.000           1.000       9.338e-06          0.8813
Strip 106
1365       2.392e-01       6.314e-01       2.815e-09           0.000           0.000           1.000       3.825e-06          0.0047
1366       2.343e-01       6.314e-01       5.066e-09          -0.000           0.000           1.000       1.125e-05          0.0078
1367       2.233e-01       6.314e-01      -3.492e-09           0.000          -0.000           1.000       1.803e-05          0.0112
1368       2.067e-01       6.314e-01       2.043e-08          -0.000           0.000           1.000       2.375e-05          0.0150
1369       1.855e-01       6.314e-01       3.410e-08           0.000          -0.000           1.000       2.810e-05          0.0194
1370       1.609e-01       6.314e-01       3.227e-07           0.000          -0.000           1.000       3.081e-05          0.0249
1371       1.344e-01       6.314e-01       9.299e-07           0.000           0.000           1.000       3.174e-05          0.0319
1372       1.075e-01       6.314e-01      -1.251e-08          -0.000           0.000           1.000       3.081e-05          0.0405
1373       8.179e-02       6.314e-01      -1.629e-06           0.000          -0.000           1.000       2.810e-05          0.0569
1374       5.873e-02       6.314e-01       2.099e-06          -0.000           0.000           1.000       2.375e-05          0.0904
1375       3.968e-02       6.314e-01      -2.502e-07          -0.000           0.000           1.000       1.803e-05          0.1673
1376       2.574e-02       6.314e-01      -7.615e-07           0.000          -0.000           1.000       1.125e-05          0.3261
1377       1.772e-02       6.314e-01      -4.534e-07           0.000          -0.000           1.000       3.825e-06          0.8459
Strip 107
1378       2.392e-01       6.334e-01       2.775e-09           0.000           0.000           1.000       9.103e-06          0.0043
1379       2.344e-01       6.334e-01       4.994e-09          -0.000           0.000           1.000       2.678e-05          0.0070
1380       2.235e-01       6.334e-01      -3.443e-09           0.000          -0.000           1.000       4.290e-05          0.0100
1381       2.071e-01       6.334e-01       2.014e-08          -0.000           0.000           1.000       5.653e-05          0.0132
1382       1.862e-01       6.334e-01       3.361e-08           0.000          -0.000           1.000       6.687e-05          0.0171
1383       1.620e-01       6.334e-01       3.181e-07           0.000          -0.000           1.000       7.333e-05          0.0219
1384       1.359e-01       6.334e-01       9.166e-07           0.000           0.000           1.000       7.552e-05          0.0279
1385       1.094e-01       6.334e-01      -1.233e-08          -0.000           0.000           1.000       7.333e-05          0.0352
1386       8.405e-02       6.334e-01      -1.605e-06           0.000          -0.000           1.000       6.687e-05          0.0489
1387       6.132e-02       6.334e-01       2.069e-06          -0.000           0.000           1.000       5.653e-05          0.0775
1388       4.254e-02       6.334e-01      -2.466e-07          -0.000           0.000           1.000       4.290e-05          0.1506
1389       2.879e-02       6.334e-01      -7.507e-07           0.000          -0.000           1.000       2.678e-05          0.3012
1390       2.089e-02       6.334e-01      -4.469e-07           0.000          -0.000           1.000       9.103e-06          0.8115
Strip 108
1391       2.392e-01       6.354e-01       2.731e-09           0.000           0.000           1.000       3.711e-06          0.0037
1392       2.345e-01       6.354e-01       4.915e-09          -0.000           0.000           1.000       1.092e-05          0.0059
1393       2.238e-01       6.354e-01      -3.388e-09           0.000          -0.000           1.000       1.749e-05          0.0084
1394       2.077e-01       6.354e-01       1.982e-08          -0.000           0.000           1.000       2.305e-05          0.0111
1395       1.871e-01       6.354e-01       3.308e-08           0.000          -0.000           1.000       2.726e-05          0.0143
1396       1.633e-01       6.354e-01       3.131e-07           0.000          -0.000           1.000       2.989e-05          0.0183
1397       1.376e-01       6.354e-01       9.021e-07           0.000           0.000           1.000       3.079e-05          0.0232
1398       1.115e-01       6.354e-01      -1.214e-08          -0.000           0.000           1.000       2.989e-05          0.0289
1399       8.651e-02       6.354e-01      -1.580e-06           0.000          -0.000           1.000       2.726e-05          0.0397
1400       6.414e-02       6.354e-01       2.036e-06          -0.000           0.000           1.000       2.305e-05          0.0622
1401       4.566e-02       6.354e-01      -2.427e-07          -0.000           0.000           1.000       1.749e-05          0.1340
1402       3.213e-02       6.354e-01      -7.388e-07           0.000          -0.000           1.000       1.092e-05          0.2632
1403       2.435e-02       6.354e-01      -4.398e-07           0.000          -0.000           1.000       3.711e-06          0.7349
Strip 109
1404       2.392e-01       6.374e-01       2.643e-09           0.000           0.000           1.000       8.671e-06          0.0031
1405       2.347e-01       6.374e-01       4.756e-09          -0.000           0.000           1.000       2.551e-05          0.0048
1406       2.243e-01       6.374e-01      -3.279e-09           0.000          -0.000           1.000       4.086e-05          0.0067
1407       2.087e-01       6.374e-01       1.918e-08          -0.000           0.000           1.000       5.384e-05          0.0089
1408       1.888e-01       6.374e-01       3.201e-08           0.000          -0.000           1.000       6.369e-05          0.0114
1409       1.657e-01       6.374e-01       3.030e-07           0.000          -0.000           1.000       6.984e-05          0.0144
1410       1.409e-01       6.374e-01       8.730e-07           0.000           0.000           1.000       7.193e-05          0.0182
1411       1.156e-01       6.374e-01      -1.175e-08          -0.000           0.000           1.000       6.984e-05          0.0221
1412       9.147e-02       6.374e-01      -1.529e-06           0.000          -0.001           1.000       6.369e-05          0.0293
1413       6.982e-02       6.374e-01       1.971e-06          -0.000           0.001           1.000       5.384e-05          0.0427
1414       5.193e-02       6.374e-01      -2.349e-07          -0.000           0.000           1.000       4.086e-05          0.0981
1415       3.884e-02       6.374e-01      -7.150e-07           0.000          -0.000           1.000       2.551e-05          0.2631
1416       3.131e-02       6.374e-01      -4.256e-07           0.000          -0.001           1.000       8.671e-06          0.6360
Strip 110
1417       2.393e-01       6.394e-01       2.536e-09           0.000           0.000           1.000       3.447e-06          0.0020
1418       2.349e-01       6.394e-01       4.565e-09          -0.000           0.000           1.000       1.014e-05          0.0030
1419       2.249e-01       6.394e-01      -3.147e-09           0.000          -0.000           1.000       1.624e-05          0.0041
1420       2.100e-01       6.394e-01       1.841e-08          -0.000           0.000           1.000       2.140e-05          0.0054
1421       1.909e-01       6.394e-01       3.072e-08           0.000          -0.000           1.000       2.532e-05          0.0069
1422       1.687e-01       6.394e-01       2.907e-07           0.000          -0.000           1.000       2.776e-05          0.0087
1423       1.449e-01       6.394e-01       8.378e-07           0.000           0.000           1.000       2.860e-05          0.0108
1424       1.206e-01       6.394e-01      -1.127e-08          -0.000           0.000           1.000       2.776e-05          0.0129
1425       9.745e-02       6.394e-01      -1.467e-06           0.000          -0.001           1.000       2.532e-05          0.0166
1426       7.667e-02       6.394e-01       1.891e-06          -0.000           0.001           1.000       2.140e-05          0.0230
1427       5.951e-02       6.394e-01      -2.255e-07          -0.000           0.000           1.000       1.624e-05          0.0418
1428       4.694e-02       6.394e-01      -6.862e-07           0.000          -0.000           1.000       1.014e-05          0.1311
1429       3.972e-02       6.394e-01      -4.085e-07           0.000          -0.001           1.000       3.447e-06          0.6411










