xflr5 v6.50

Plane Name
T1-44.0 m/s-VLM1
QInf  =   44.000000 m/s
Alpha =   -1.000000
Beta  =    0.000°
Phi   =    0.000°
Ctrl  =    0.000
CL    =   -0.074746
Cy    =    0.000000
Cd    =    0.007232     ICd   =    0.000302     PCd   =    0.006930
Cl   = 7.65937e-17
Cm   =   0.0180576
ICn   =   -0.000000     PCn   =    0.000000 
XCP   =    0.057768     YCP   =    0.000000     ZCP   =   -0.000000  
XNP   =    0.000000
Bending =   -2.385315

Main Wing
  y-span        Chord      Ai         Cl        PCd          ICd        CmGeom    CmAirf@chord/4    XTrtop    XTrBot      XCP       BM
   -0.6394     0.2025     0.390   -0.009062    0.007392    0.000062    0.003134   -0.000866     0.6806    0.6768    0.1544    0.0000
   -0.6374     0.2110     0.388   -0.014485    0.007271    0.000098    0.004457   -0.001205     0.6791    0.6730    0.1668   -0.0000
   -0.6354     0.2180     0.385   -0.017596    0.007179    0.000118    0.004932   -0.001285     0.6778    0.6702    0.1770   -0.0000
   -0.6334     0.2215     0.383   -0.020464    0.007134    0.000137    0.005479   -0.001385     0.6774    0.6685    0.1823   -0.0001
   -0.6314     0.2247     0.381   -0.022703    0.007093    0.000151    0.005832   -0.001425     0.6769    0.6671    0.1872   -0.0001
   -0.6294     0.2272     0.378   -0.024785    0.007062    0.000164    0.006169   -0.001458     0.6766    0.6659    0.1912   -0.0002
   -0.6277     0.2292     0.377   -0.026079    0.007038    0.000171    0.006318   -0.001466     0.6763    0.6651    0.1938   -0.0003
   -0.6267     0.2300     0.376   -0.027278    0.007029    0.000179    0.006565   -0.001483     0.6763    0.6646    0.1956   -0.0004
   -0.6250     0.2313     0.374   -0.028762    0.007013    0.000188    0.006819   -0.001495     0.6763    0.6639    0.1980   -0.0005
   -0.6239     0.2321     0.373   -0.029297    0.007003    0.000190    0.006868   -0.001493     0.6762    0.6635    0.1990   -0.0006
   -0.6237     0.2323     0.372   -0.029761    0.007001    0.000193    0.006974   -0.001494     0.6762    0.6634    0.1998   -0.0006
   -0.6231     0.2326     0.372   -0.030334    0.006996    0.000197    0.007085   -0.001493     0.6762    0.6631    0.2008   -0.0007
   -0.6224     0.2332     0.371   -0.030997    0.006990    0.000201    0.007199   -0.001490     0.6762    0.6628    0.2019   -0.0007
   -0.6215     0.2339     0.370   -0.031723    0.006982    0.000205    0.007314   -0.001483     0.6761    0.6625    0.2032   -0.0008
   -0.6205     0.2346     0.369   -0.032450    0.006973    0.000209    0.007416   -0.001475     0.6761    0.6621    0.2046   -0.0010
   -0.6200     0.2350     0.369   -0.032638    0.006968    0.000206    0.007409   -0.001471     0.6760    0.6619    0.2049   -0.0010
   -0.6199     0.2350     0.368   -0.032786    0.006968    0.000211    0.007450   -0.001471     0.6760    0.6619    0.2051   -0.0010
   -0.6198     0.2351     0.368   -0.032978    0.006967    0.000212    0.007494   -0.001470     0.6760    0.6618    0.2054   -0.0010
   -0.6196     0.2352     0.368   -0.033199    0.006966    0.000213    0.007540   -0.001469     0.6760    0.6617    0.2058   -0.0011
   -0.6193     0.2353     0.368   -0.033450    0.006964    0.000215    0.007590   -0.001467     0.6761    0.6616    0.2061   -0.0011
   -0.6190     0.2355     0.368   -0.033732    0.006963    0.000216    0.007644   -0.001466     0.6761    0.6615    0.2065   -0.0012
   -0.6186     0.2357     0.367   -0.034045    0.006961    0.000218    0.007703   -0.001464     0.6761    0.6614    0.2070   -0.0012
   -0.6182     0.2359     0.367   -0.034383    0.006958    0.000220    0.007765   -0.001462     0.6761    0.6613    0.2075   -0.0013
   -0.6178     0.2361     0.366   -0.034742    0.006956    0.000222    0.007829   -0.001460     0.6761    0.6611    0.2080   -0.0013
   -0.6173     0.2364     0.366   -0.035116    0.006953    0.000224    0.007895   -0.001457     0.6761    0.6610    0.2085   -0.0014
   -0.6168     0.2366     0.365   -0.035497    0.006950    0.000226    0.007960   -0.001455     0.6761    0.6608    0.2090   -0.0015
   -0.6163     0.2369     0.365   -0.035871    0.006947    0.000228    0.008022   -0.001452     0.6761    0.6607    0.2095   -0.0016
   -0.6160     0.2370     0.365   -0.036010    0.006946    0.000227    0.008036   -0.001451     0.6761    0.6606    0.2097   -0.0016
   -0.6159     0.2370     0.364   -0.036121    0.006945    0.000230    0.008065   -0.001451     0.6761    0.6606    0.2098   -0.0016
   -0.6158     0.2371     0.364   -0.036271    0.006945    0.000231    0.008099   -0.001451     0.6761    0.6605    0.2100   -0.0016
   -0.6156     0.2371     0.364   -0.036458    0.006945    0.000232    0.008140   -0.001451     0.6762    0.6605    0.2102   -0.0017
   -0.6153     0.2372     0.364   -0.036682    0.006944    0.000233    0.008189   -0.001451     0.6762    0.6604    0.2104   -0.0017
   -0.6150     0.2372     0.364   -0.036945    0.006943    0.000234    0.008245   -0.001452     0.6762    0.6603    0.2107   -0.0018
   -0.6146     0.2373     0.363   -0.037243    0.006942    0.000236    0.008307   -0.001452     0.6763    0.6602    0.2110   -0.0018
   -0.6142     0.2374     0.363   -0.037572    0.006941    0.000238    0.008377   -0.001452     0.6763    0.6601    0.2113   -0.0019
   -0.6138     0.2376     0.362   -0.037929    0.006940    0.000240    0.008451   -0.001452     0.6763    0.6600    0.2117   -0.0020
   -0.6133     0.2377     0.362   -0.038307    0.006939    0.000242    0.008530   -0.001452     0.6764    0.6599    0.2121   -0.0021
   -0.6128     0.2378     0.361   -0.038701    0.006937    0.000244    0.008612   -0.001452     0.6764    0.6598    0.2125   -0.0022
   -0.6123     0.2379     0.361   -0.039102    0.006936    0.000246    0.008695   -0.001451     0.6765    0.6597    0.2129   -0.0023
   -0.6119     0.2380     0.360   -0.039371    0.006935    0.000248    0.008751   -0.001450     0.6765    0.6596    0.2132   -0.0023
   -0.6117     0.2381     0.360   -0.039629    0.006935    0.000249    0.008808   -0.001450     0.6765    0.6595    0.2134   -0.0024
   -0.6111     0.2382     0.360   -0.040041    0.006933    0.000251    0.008893   -0.001448     0.6766    0.6594    0.2138   -0.0025
   -0.6104     0.2384     0.359   -0.040597    0.006932    0.000254    0.009008   -0.001446     0.6767    0.6592    0.2144   -0.0027
   -0.6095     0.2386     0.358   -0.041273    0.006929    0.000258    0.009146   -0.001442     0.6767    0.6590    0.2151   -0.0029
   -0.6085     0.2389     0.357   -0.042035    0.006927    0.000262    0.009302   -0.001436     0.6768    0.6588    0.2158   -0.0031
   -0.6077     0.2391     0.356   -0.042726    0.006926    0.000266    0.009448   -0.001431     0.6769    0.6586    0.2165   -0.0033
   -0.6067     0.2393     0.355   -0.043502    0.006924    0.000270    0.009606   -0.001424     0.6770    0.6584    0.2173   -0.0036
   -0.6050     0.2397     0.354   -0.044791    0.006921    0.000276    0.009861   -0.001414     0.6772    0.6580    0.2184   -0.0040
   -0.6037     0.2400     0.352   -0.045897    0.006919    0.000282    0.010093   -0.001412     0.6774    0.6577    0.2192   -0.0044
   -0.6027     0.2400     0.351   -0.047031    0.006920    0.000288    0.010372   -0.001415     0.6776    0.6574    0.2199   -0.0047
   -0.6010     0.2400     0.349   -0.049012    0.006921    0.000299    0.010856   -0.001427     0.6780    0.6570    0.2209   -0.0053
   -0.5772     0.2400     0.332   -0.053176    0.006923    0.000309    0.011873   -0.001451     0.6789    0.6561    0.2227   -0.0138
   -0.4893     0.2400     0.282   -0.068298    0.006925    0.000336    0.016012   -0.001093     0.6823    0.6531    0.2340   -0.1058
   -0.3269     0.2400     0.225   -0.080027    0.006925    0.000314    0.019438   -0.000599     0.6850    0.6508    0.2425   -0.6864
   -0.1148     0.2400     0.194   -0.085279    0.006924    0.000289    0.020962   -0.000388     0.6862    0.6497    0.2455   -2.3853
    0.1148     0.2400     0.194   -0.085279    0.006924    0.000289    0.020962   -0.000388     0.6862    0.6497    0.2455   -2.3853
    0.3269     0.2400     0.225   -0.080027    0.006925    0.000314    0.019438   -0.000599     0.6850    0.6508    0.2425   -0.6864
    0.4893     0.2400     0.282   -0.068298    0.006925    0.000336    0.016012   -0.001093     0.6823    0.6531    0.2340   -0.1058
    0.5772     0.2400     0.332   -0.053176    0.006923    0.000309    0.011873   -0.001451     0.6789    0.6561    0.2227   -0.0138
    0.6010     0.2400     0.349   -0.049012    0.006921    0.000299    0.010856   -0.001427     0.6780    0.6570    0.2209   -0.0053
    0.6027     0.2400     0.351   -0.047031    0.006920    0.000288    0.010372   -0.001415     0.6776    0.6574    0.2199   -0.0047
    0.6037     0.2400     0.352   -0.045897    0.006919    0.000282    0.010093   -0.001412     0.6774    0.6577    0.2192   -0.0044
    0.6050     0.2397     0.354   -0.044791    0.006921    0.000276    0.009861   -0.001414     0.6772    0.6580    0.2184   -0.0040
    0.6067     0.2393     0.355   -0.043502    0.006924    0.000270    0.009606   -0.001424     0.6770    0.6584    0.2173   -0.0036
    0.6077     0.2391     0.356   -0.042726    0.006926    0.000266    0.009448   -0.001431     0.6769    0.6586    0.2165   -0.0033
    0.6085     0.2389     0.357   -0.042035    0.006927    0.000262    0.009302   -0.001436     0.6768    0.6588    0.2158   -0.0031
    0.6095     0.2386     0.358   -0.041273    0.006929    0.000258    0.009146   -0.001442     0.6767    0.6590    0.2151   -0.0029
    0.6104     0.2384     0.359   -0.040597    0.006932    0.000254    0.009008   -0.001446     0.6767    0.6592    0.2144   -0.0027
    0.6111     0.2382     0.360   -0.040041    0.006933    0.000251    0.008893   -0.001448     0.6766    0.6594    0.2138   -0.0025
    0.6117     0.2381     0.360   -0.039629    0.006935    0.000249    0.008808   -0.001450     0.6765    0.6595    0.2134   -0.0024
    0.6119     0.2380     0.360   -0.039371    0.006935    0.000248    0.008751   -0.001450     0.6765    0.6596    0.2132   -0.0023
    0.6123     0.2379     0.361   -0.039102    0.006936    0.000246    0.008695   -0.001451     0.6765    0.6597    0.2129   -0.0023
    0.6128     0.2378     0.361   -0.038701    0.006937    0.000244    0.008612   -0.001452     0.6764    0.6598    0.2125   -0.0022
    0.6133     0.2377     0.362   -0.038307    0.006939    0.000242    0.008530   -0.001452     0.6764    0.6599    0.2121   -0.0021
    0.6138     0.2376     0.362   -0.037929    0.006940    0.000240    0.008451   -0.001452     0.6763    0.6600    0.2117   -0.0020
    0.6142     0.2374     0.363   -0.037572    0.006941    0.000238    0.008377   -0.001452     0.6763    0.6601    0.2113   -0.0019
    0.6146     0.2373     0.363   -0.037243    0.006942    0.000236    0.008307   -0.001452     0.6763    0.6602    0.2110   -0.0018
    0.6150     0.2372     0.364   -0.036945    0.006943    0.000234    0.008245   -0.001452     0.6762    0.6603    0.2107   -0.0018
    0.6153     0.2372     0.364   -0.036682    0.006944    0.000233    0.008189   -0.001451     0.6762    0.6604    0.2104   -0.0017
    0.6156     0.2371     0.364   -0.036458    0.006945    0.000232    0.008140   -0.001451     0.6762    0.6605    0.2102   -0.0017
    0.6158     0.2371     0.364   -0.036271    0.006945    0.000231    0.008099   -0.001451     0.6761    0.6605    0.2100   -0.0016
    0.6159     0.2370     0.364   -0.036121    0.006945    0.000230    0.008065   -0.001451     0.6761    0.6606    0.2098   -0.0016
    0.6160     0.2370     0.365   -0.036010    0.006946    0.000227    0.008036   -0.001451     0.6761    0.6606    0.2097   -0.0016
    0.6163     0.2369     0.365   -0.035871    0.006947    0.000228    0.008022   -0.001452     0.6761    0.6607    0.2095   -0.0016
    0.6168     0.2366     0.365   -0.035497    0.006950    0.000226    0.007960   -0.001455     0.6761    0.6608    0.2090   -0.0015
    0.6173     0.2364     0.366   -0.035116    0.006953    0.000224    0.007895   -0.001457     0.6761    0.6610    0.2085   -0.0014
    0.6178     0.2361     0.366   -0.034742    0.006956    0.000222    0.007829   -0.001460     0.6761    0.6611    0.2080   -0.0013
    0.6182     0.2359     0.367   -0.034383    0.006958    0.000220    0.007765   -0.001462     0.6761    0.6613    0.2075   -0.0013
    0.6186     0.2357     0.367   -0.034045    0.006961    0.000218    0.007703   -0.001464     0.6761    0.6614    0.2070   -0.0012
    0.6190     0.2355     0.368   -0.033732    0.006963    0.000216    0.007644   -0.001466     0.6761    0.6615    0.2065   -0.0012
    0.6193     0.2353     0.368   -0.033450    0.006964    0.000215    0.007590   -0.001467     0.6761    0.6616    0.2061   -0.0011
    0.6196     0.2352     0.368   -0.033199    0.006966    0.000213    0.007540   -0.001469     0.6760    0.6617    0.2058   -0.0011
    0.6198     0.2351     0.368   -0.032978    0.006967    0.000212    0.007494   -0.001470     0.6760    0.6618    0.2054   -0.0010
    0.6199     0.2350     0.368   -0.032786    0.006968    0.000211    0.007450   -0.001471     0.6760    0.6619    0.2051   -0.0010
    0.6200     0.2350     0.369   -0.032638    0.006968    0.000206    0.007409   -0.001471     0.6760    0.6619    0.2049   -0.0010
    0.6205     0.2346     0.369   -0.032450    0.006973    0.000209    0.007416   -0.001475     0.6761    0.6621    0.2046   -0.0010
    0.6215     0.2339     0.370   -0.031723    0.006982    0.000205    0.007314   -0.001483     0.6761    0.6625    0.2032   -0.0008
    0.6224     0.2332     0.371   -0.030997    0.006990    0.000201    0.007199   -0.001490     0.6762    0.6628    0.2019   -0.0007
    0.6231     0.2326     0.372   -0.030334    0.006996    0.000197    0.007085   -0.001493     0.6762    0.6631    0.2008   -0.0007
    0.6237     0.2323     0.372   -0.029761    0.007001    0.000193    0.006974   -0.001494     0.6762    0.6634    0.1998   -0.0006
    0.6239     0.2321     0.373   -0.029297    0.007003    0.000190    0.006868   -0.001493     0.6762    0.6635    0.1990   -0.0006
    0.6250     0.2313     0.374   -0.028762    0.007013    0.000188    0.006819   -0.001495     0.6763    0.6639    0.1980   -0.0005
    0.6267     0.2300     0.376   -0.027278    0.007029    0.000179    0.006565   -0.001483     0.6763    0.6646    0.1956   -0.0004
    0.6277     0.2292     0.377   -0.026079    0.007038    0.000171    0.006318   -0.001466     0.6763    0.6651    0.1938   -0.0003
    0.6294     0.2272     0.378   -0.024785    0.007062    0.000164    0.006169   -0.001458     0.6766    0.6659    0.1912   -0.0002
    0.6314     0.2247     0.381   -0.022703    0.007093    0.000151    0.005832   -0.001425     0.6769    0.6671    0.1872   -0.0001
    0.6334     0.2215     0.383   -0.020464    0.007134    0.000137    0.005479   -0.001385     0.6774    0.6685    0.1823   -0.0001
    0.6354     0.2180     0.385   -0.017596    0.007179    0.000118    0.004932   -0.001285     0.6778    0.6702    0.1770   -0.0000
    0.6374     0.2110     0.388   -0.014485    0.007271    0.000098    0.004457   -0.001205     0.6791    0.6730    0.1668   -0.0000
    0.6394     0.2025     0.390   -0.009062    0.007392    0.000062    0.003134   -0.000866     0.6806    0.6768    0.1544    0.0000


Main Wing Cp Coefficients
 Panel     CtrlPt.x        CtrlPt.y        CtrlPt.z       Nx      Ny       Nz        Area       Cp
Main WingCp Coefficients
Strip 1
   0       2.393e-01      -6.394e-01       2.536e-09           0.000          -0.000           1.000       3.447e-06         -0.0007
   1       2.349e-01      -6.394e-01       4.565e-09          -0.000          -0.000           1.000       1.014e-05         -0.0010
   2       2.249e-01      -6.394e-01      -3.147e-09           0.000           0.000           1.000       1.624e-05         -0.0014
   3       2.100e-01      -6.394e-01       1.841e-08          -0.000          -0.000           1.000       2.140e-05         -0.0018
   4       1.909e-01      -6.394e-01       3.072e-08           0.000           0.000           1.000       2.532e-05         -0.0023
   5       1.687e-01      -6.394e-01       2.907e-07           0.000           0.000           1.000       2.776e-05         -0.0029
   6       1.449e-01      -6.394e-01       8.378e-07           0.000          -0.000           1.000       2.860e-05         -0.0035
   7       1.206e-01      -6.394e-01      -1.127e-08          -0.000          -0.000           1.000       2.776e-05         -0.0046
   8       9.745e-02      -6.394e-01      -1.467e-06           0.000           0.001           1.000       2.532e-05         -0.0053
   9       7.667e-02      -6.394e-01       1.891e-06          -0.000          -0.001           1.000       2.140e-05         -0.0076
  10       5.951e-02      -6.394e-01      -2.255e-07          -0.000          -0.000           1.000       1.624e-05         -0.0140
  11       4.694e-02      -6.394e-01      -6.862e-07           0.000           0.000           1.000       1.014e-05         -0.0439
  12       3.972e-02      -6.394e-01      -4.085e-07           0.000           0.001           1.000       3.447e-06         -0.2140
Strip 2
  13       2.392e-01      -6.374e-01       2.643e-09           0.000          -0.000           1.000       8.671e-06         -0.0010
  14       2.347e-01      -6.374e-01       4.756e-09          -0.000          -0.000           1.000       2.551e-05         -0.0016
  15       2.243e-01      -6.374e-01      -3.279e-09           0.000           0.000           1.000       4.086e-05         -0.0022
  16       2.087e-01      -6.374e-01       1.918e-08          -0.000          -0.000           1.000       5.384e-05         -0.0030
  17       1.888e-01      -6.374e-01       3.201e-08           0.000           0.000           1.000       6.369e-05         -0.0038
  18       1.657e-01      -6.374e-01       3.030e-07           0.000           0.000           1.000       6.984e-05         -0.0048
  19       1.409e-01      -6.374e-01       8.730e-07           0.000          -0.000           1.000       7.193e-05         -0.0058
  20       1.156e-01      -6.374e-01      -1.175e-08          -0.000          -0.000           1.000       6.984e-05         -0.0079
  21       9.147e-02      -6.374e-01      -1.529e-06           0.000           0.001           1.000       6.369e-05         -0.0094
  22       6.982e-02      -6.374e-01       1.971e-06          -0.000          -0.001           1.000       5.384e-05         -0.0143
  23       5.193e-02      -6.374e-01      -2.349e-07          -0.000          -0.000           1.000       4.086e-05         -0.0329
  24       3.884e-02      -6.374e-01      -7.150e-07           0.000           0.000           1.000       2.551e-05         -0.0880
  25       3.131e-02      -6.374e-01      -4.256e-07           0.000           0.001           1.000       8.671e-06         -0.2123
Strip 3
  26       2.392e-01      -6.354e-01       2.731e-09           0.000          -0.000           1.000       3.711e-06         -0.0012
  27       2.345e-01      -6.354e-01       4.915e-09          -0.000          -0.000           1.000       1.092e-05         -0.0020
  28       2.238e-01      -6.354e-01      -3.388e-09           0.000           0.000           1.000       1.749e-05         -0.0028
  29       2.077e-01      -6.354e-01       1.982e-08          -0.000          -0.000           1.000       2.305e-05         -0.0037
  30       1.871e-01      -6.354e-01       3.308e-08           0.000           0.000           1.000       2.726e-05         -0.0048
  31       1.633e-01      -6.354e-01       3.131e-07           0.000           0.000           1.000       2.989e-05         -0.0060
  32       1.376e-01      -6.354e-01       9.021e-07           0.000          -0.000           1.000       3.079e-05         -0.0075
  33       1.115e-01      -6.354e-01      -1.214e-08          -0.000          -0.000           1.000       2.989e-05         -0.0103
  34       8.651e-02      -6.354e-01      -1.580e-06           0.000           0.000           1.000       2.726e-05         -0.0127
  35       6.414e-02      -6.354e-01       2.036e-06          -0.000          -0.000           1.000       2.305e-05         -0.0208
  36       4.566e-02      -6.354e-01      -2.427e-07          -0.000          -0.000           1.000       1.749e-05         -0.0449
  37       3.213e-02      -6.354e-01      -7.388e-07           0.000           0.000           1.000       1.092e-05         -0.0881
  38       2.435e-02      -6.354e-01      -4.398e-07           0.000           0.000           1.000       3.711e-06         -0.2450
Strip 4
  39       2.392e-01      -6.334e-01       2.775e-09           0.000          -0.000           1.000       9.103e-06         -0.0014
  40       2.344e-01      -6.334e-01       4.994e-09          -0.000          -0.000           1.000       2.678e-05         -0.0023
  41       2.235e-01      -6.334e-01      -3.443e-09           0.000           0.000           1.000       4.290e-05         -0.0033
  42       2.071e-01      -6.334e-01       2.014e-08          -0.000          -0.000           1.000       5.653e-05         -0.0044
  43       1.862e-01      -6.334e-01       3.361e-08           0.000           0.000           1.000       6.687e-05         -0.0057
  44       1.620e-01      -6.334e-01       3.181e-07           0.000           0.000           1.000       7.333e-05         -0.0072
  45       1.359e-01      -6.334e-01       9.166e-07           0.000          -0.000           1.000       7.552e-05         -0.0090
  46       1.094e-01      -6.334e-01      -1.233e-08          -0.000          -0.000           1.000       7.333e-05         -0.0125
  47       8.405e-02      -6.334e-01      -1.605e-06           0.000           0.000           1.000       6.687e-05         -0.0157
  48       6.132e-02      -6.334e-01       2.069e-06          -0.000          -0.000           1.000       5.653e-05         -0.0259
  49       4.254e-02      -6.334e-01      -2.466e-07          -0.000          -0.000           1.000       4.290e-05         -0.0505
  50       2.879e-02      -6.334e-01      -7.507e-07           0.000           0.000           1.000       2.678e-05         -0.1008
  51       2.089e-02      -6.334e-01      -4.469e-07           0.000           0.000           1.000       9.103e-06         -0.2705
Strip 5
  52       2.392e-01      -6.314e-01       2.815e-09           0.000          -0.000           1.000       3.825e-06         -0.0015
  53       2.343e-01      -6.314e-01       5.066e-09          -0.000          -0.000           1.000       1.125e-05         -0.0026
  54       2.233e-01      -6.314e-01      -3.492e-09           0.000           0.000           1.000       1.803e-05         -0.0037
  55       2.067e-01      -6.314e-01       2.043e-08          -0.000          -0.000           1.000       2.375e-05         -0.0050
  56       1.855e-01      -6.314e-01       3.410e-08           0.000           0.000           1.000       2.810e-05         -0.0065
  57       1.609e-01      -6.314e-01       3.227e-07           0.000           0.000           1.000       3.081e-05         -0.0082
  58       1.344e-01      -6.314e-01       9.299e-07           0.000          -0.000           1.000       3.174e-05         -0.0103
  59       1.075e-01      -6.314e-01      -1.251e-08          -0.000          -0.000           1.000       3.081e-05         -0.0143
  60       8.179e-02      -6.314e-01      -1.629e-06           0.000           0.000           1.000       2.810e-05         -0.0183
  61       5.873e-02      -6.314e-01       2.099e-06          -0.000          -0.000           1.000       2.375e-05         -0.0303
  62       3.968e-02      -6.314e-01      -2.502e-07          -0.000          -0.000           1.000       1.803e-05         -0.0561
  63       2.574e-02      -6.314e-01      -7.615e-07           0.000           0.000           1.000       1.125e-05         -0.1091
  64       1.772e-02      -6.314e-01      -4.534e-07           0.000           0.000           1.000       3.825e-06         -0.2819
Strip 6
  65       2.392e-01      -6.294e-01       2.846e-09           0.000          -0.000           1.000       9.338e-06         -0.0017
  66       2.343e-01      -6.294e-01       5.122e-09          -0.000          -0.000           1.000       2.747e-05         -0.0029
  67       2.231e-01      -6.294e-01      -3.531e-09           0.000           0.000           1.000       4.401e-05         -0.0041
  68       2.063e-01      -6.294e-01       2.065e-08          -0.000          -0.000           1.000       5.799e-05         -0.0056
  69       1.849e-01      -6.294e-01       3.448e-08           0.000           0.000           1.000       6.860e-05         -0.0072
  70       1.600e-01      -6.294e-01       3.263e-07           0.000           0.000           1.000       7.522e-05         -0.0091
  71       1.332e-01      -6.294e-01       9.402e-07           0.000          -0.000           1.000       7.747e-05         -0.0116
  72       1.060e-01      -6.294e-01      -1.265e-08          -0.000          -0.000           1.000       7.522e-05         -0.0161
  73       8.003e-02      -6.294e-01      -1.647e-06           0.000           0.000           1.000       6.860e-05         -0.0207
  74       5.672e-02      -6.294e-01       2.122e-06          -0.000          -0.000           1.000       5.799e-05         -0.0342
  75       3.745e-02      -6.294e-01      -2.530e-07          -0.000          -0.000           1.000       4.401e-05         -0.0609
  76       2.335e-02      -6.294e-01      -7.700e-07           0.000           0.000           1.000       2.747e-05         -0.1168
  77       1.524e-02      -6.294e-01      -4.584e-07           0.000           0.000           1.000       9.338e-06         -0.2936
Strip 7
  78       2.392e-01      -6.277e-01       2.871e-09           0.000          -0.000           1.000       1.785e-06         -0.0018
  79       2.342e-01      -6.277e-01       5.167e-09          -0.000          -0.000           1.000       5.250e-06         -0.0030
  80       2.229e-01      -6.277e-01      -3.562e-09           0.000           0.000           1.000       8.410e-06         -0.0044
  81       2.060e-01      -6.277e-01       2.083e-08          -0.000          -0.000           1.000       1.108e-05         -0.0059
  82       1.844e-01      -6.277e-01       3.477e-08           0.000           0.000           1.000       1.311e-05         -0.0077
  83       1.593e-01      -6.277e-01       3.291e-07           0.000           0.000           1.000       1.438e-05         -0.0098
  84       1.323e-01      -6.277e-01       9.483e-07           0.000          -0.000           1.000       1.481e-05         -0.0124
  85       1.049e-01      -6.277e-01      -1.276e-08          -0.000          -0.000           1.000       1.438e-05         -0.0172
  86       7.865e-02      -6.277e-01      -1.661e-06           0.000           0.000           1.000       1.311e-05         -0.0224
  87       5.513e-02      -6.277e-01       2.141e-06          -0.000          -0.000           1.000       1.108e-05         -0.0366
  88       3.570e-02      -6.277e-01      -2.552e-07          -0.000          -0.000           1.000       8.410e-06         -0.0639
  89       2.148e-02      -6.277e-01      -7.767e-07           0.000           0.000           1.000       5.250e-06         -0.1205
  90       1.330e-02      -6.277e-01      -4.624e-07           0.000           0.000           1.000       1.785e-06         -0.3026
Strip 8
  91       2.392e-01      -6.267e-01       2.880e-09           0.000          -0.000           1.000       4.892e-06         -0.0018
  92       2.342e-01      -6.267e-01       5.184e-09          -0.000          -0.000           1.000       1.439e-05         -0.0032
  93       2.229e-01      -6.267e-01      -3.574e-09           0.000           0.000           1.000       2.305e-05         -0.0046
  94       2.059e-01      -6.267e-01       2.090e-08          -0.000          -0.000           1.000       3.038e-05         -0.0062
  95       1.842e-01      -6.267e-01       3.489e-08           0.000           0.000           1.000       3.593e-05         -0.0081
  96       1.591e-01      -6.267e-01       3.302e-07           0.000           0.000           1.000       3.940e-05         -0.0103
  97       1.320e-01      -6.267e-01       9.514e-07           0.000          -0.000           1.000       4.058e-05         -0.0131
  98       1.044e-01      -6.267e-01      -1.280e-08          -0.000          -0.000           1.000       3.940e-05         -0.0183
  99       7.812e-02      -6.267e-01      -1.666e-06           0.000           0.000           1.000       3.593e-05         -0.0238
 100       5.452e-02      -6.267e-01       2.148e-06          -0.000          -0.000           1.000       3.038e-05         -0.0387
 101       3.503e-02      -6.267e-01      -2.560e-07          -0.000          -0.000           1.000       2.305e-05         -0.0664
 102       2.076e-02      -6.267e-01      -7.792e-07           0.000           0.000           1.000       1.439e-05         -0.1224
 103       1.255e-02      -6.267e-01      -4.639e-07           0.000           0.000           1.000       4.892e-06         -0.3181
Strip 9
 104       2.392e-01      -6.250e-01       2.896e-09           0.000          -0.000           1.000       6.720e-06         -0.0019
 105       2.342e-01      -6.250e-01       5.213e-09          -0.000          -0.000           1.000       1.977e-05         -0.0034
 106       2.228e-01      -6.250e-01      -3.594e-09           0.000           0.000           1.000       3.167e-05         -0.0049
 107       2.057e-01      -6.250e-01       2.102e-08          -0.000          -0.000           1.000       4.173e-05         -0.0067
 108       1.839e-01      -6.250e-01       3.509e-08           0.000           0.000           1.000       4.936e-05         -0.0087
 109       1.586e-01      -6.250e-01       3.320e-07           0.000           0.000           1.000       5.413e-05         -0.0110
 110       1.313e-01      -6.250e-01       9.568e-07           0.000          -0.000           1.000       5.575e-05         -0.0141
 111       1.037e-01      -6.250e-01      -1.288e-08          -0.000          -0.000           1.000       5.413e-05         -0.0196
 112       7.720e-02      -6.250e-01      -1.676e-06           0.000           0.000           1.000       4.936e-05         -0.0257
 113       5.348e-02      -6.250e-01       2.160e-06          -0.000          -0.000           1.000       4.173e-05         -0.0413
 114       3.387e-02      -6.250e-01      -2.575e-07          -0.000          -0.000           1.000       3.167e-05         -0.0693
 115       1.952e-02      -6.250e-01      -7.836e-07           0.000           0.000           1.000       1.977e-05         -0.1266
 116       1.127e-02      -6.250e-01      -4.665e-07           0.000           0.000           1.000       6.720e-06         -0.3315
Strip 10
 117       2.392e-01      -6.239e-01       2.906e-09           0.000          -0.000           1.000       4.595e-07         -0.0020
 118       2.341e-01      -6.239e-01       5.231e-09          -0.000          -0.000           1.000       1.352e-06         -0.0035
 119       2.227e-01      -6.239e-01      -3.606e-09           0.000           0.000           1.000       2.166e-06         -0.0050
 120       2.056e-01      -6.239e-01       2.109e-08          -0.000          -0.000           1.000       2.854e-06         -0.0068
 121       1.837e-01      -6.239e-01       3.521e-08           0.000           0.000           1.000       3.376e-06         -0.0089
 122       1.583e-01      -6.239e-01       3.332e-07           0.000           0.000           1.000       3.702e-06         -0.0113
 123       1.310e-01      -6.239e-01       9.601e-07           0.000          -0.000           1.000       3.812e-06         -0.0145
 124       1.032e-01      -6.239e-01      -1.292e-08          -0.000          -0.000           1.000       3.702e-06         -0.0201
 125       7.664e-02      -6.239e-01      -1.682e-06           0.000           0.000           1.000       3.376e-06         -0.0264
 126       5.283e-02      -6.239e-01       2.167e-06          -0.000          -0.000           1.000       2.854e-06         -0.0423
 127       3.316e-02      -6.239e-01      -2.584e-07          -0.000          -0.000           1.000       2.166e-06         -0.0705
 128       1.876e-02      -6.239e-01      -7.863e-07           0.000           0.000           1.000       1.352e-06         -0.1286
 129       1.048e-02      -6.239e-01      -4.681e-07           0.000           0.000           1.000       4.595e-07         -0.3331
Strip 11
 130       2.392e-01      -6.237e-01       2.909e-09           0.000           0.000           1.000       1.348e-06         -0.0020
 131       2.341e-01      -6.237e-01       5.236e-09          -0.000          -0.000           1.000       3.967e-06         -0.0035
 132       2.227e-01      -6.237e-01      -3.609e-09           0.000           0.000           1.000       6.355e-06         -0.0051
 133       2.056e-01      -6.237e-01       2.111e-08          -0.000          -0.000           1.000       8.373e-06         -0.0069
 134       1.836e-01      -6.237e-01       3.524e-08           0.000           0.000           1.000       9.905e-06         -0.0091
 135       1.583e-01      -6.237e-01       3.335e-07           0.000           0.000           1.000       1.086e-05         -0.0115
 136       1.309e-01      -6.237e-01       9.610e-07           0.000          -0.000           1.000       1.119e-05         -0.0148
 137       1.031e-01      -6.237e-01      -1.293e-08          -0.000          -0.000           1.000       1.086e-05         -0.0205
 138       7.650e-02      -6.237e-01      -1.683e-06           0.000           0.000           1.000       9.905e-06         -0.0270
 139       5.267e-02      -6.237e-01       2.169e-06          -0.000          -0.000           1.000       8.373e-06         -0.0431
 140       3.298e-02      -6.237e-01      -2.586e-07          -0.000          -0.000           1.000       6.355e-06         -0.0716
 141       1.857e-02      -6.237e-01      -7.870e-07           0.000           0.000           1.000       3.967e-06         -0.1304
 142       1.028e-02      -6.237e-01      -4.685e-07           0.000           0.000           1.000       1.348e-06         -0.3349
Strip 12
 143       2.392e-01      -6.231e-01       2.914e-09           0.000          -0.000           1.000       2.149e-06         -0.0021
 144       2.341e-01      -6.231e-01       5.244e-09          -0.000          -0.000           1.000       6.321e-06         -0.0036
 145       2.227e-01      -6.231e-01      -3.615e-09           0.000           0.000           1.000       1.013e-05         -0.0052
 146       2.055e-01      -6.231e-01       2.115e-08          -0.000          -0.000           1.000       1.334e-05         -0.0071
 147       1.835e-01      -6.231e-01       3.530e-08           0.000           0.000           1.000       1.578e-05         -0.0093
 148       1.581e-01      -6.231e-01       3.340e-07           0.000           0.000           1.000       1.731e-05         -0.0118
 149       1.307e-01      -6.231e-01       9.626e-07           0.000          -0.000           1.000       1.783e-05         -0.0151
 150       1.029e-01      -6.231e-01      -1.295e-08          -0.000          -0.000           1.000       1.731e-05         -0.0210
 151       7.622e-02      -6.231e-01      -1.686e-06           0.000           0.000           1.000       1.578e-05         -0.0277
 152       5.236e-02      -6.231e-01       2.173e-06          -0.000          -0.000           1.000       1.334e-05         -0.0441
 153       3.263e-02      -6.231e-01      -2.590e-07          -0.000          -0.000           1.000       1.013e-05         -0.0729
 154       1.820e-02      -6.231e-01      -7.883e-07           0.000           0.000           1.000       6.321e-06         -0.1326
 155       9.895e-03      -6.231e-01      -4.693e-07           0.000           0.000           1.000       2.149e-06         -0.3365
Strip 13
 156       2.392e-01      -6.224e-01       2.921e-09           0.000          -0.000           1.000       2.807e-06         -0.0021
 157       2.341e-01      -6.224e-01       5.257e-09          -0.000          -0.000           1.000       8.257e-06         -0.0037
 158       2.227e-01      -6.224e-01      -3.624e-09           0.000           0.000           1.000       1.323e-05         -0.0054
 159       2.054e-01      -6.224e-01       2.120e-08          -0.000          -0.000           1.000       1.743e-05         -0.0073
 160       1.834e-01      -6.224e-01       3.538e-08           0.000           0.000           1.000       2.062e-05         -0.0095
 161       1.579e-01      -6.224e-01       3.348e-07           0.000           0.000           1.000       2.261e-05         -0.0122
 162       1.304e-01      -6.224e-01       9.648e-07           0.000          -0.000           1.000       2.329e-05         -0.0156
 163       1.025e-01      -6.224e-01      -1.298e-08          -0.000          -0.000           1.000       2.261e-05         -0.0217
 164       7.584e-02      -6.224e-01      -1.690e-06           0.000           0.000           1.000       2.062e-05         -0.0286
 165       5.191e-02      -6.224e-01       2.178e-06          -0.000          -0.000           1.000       1.743e-05         -0.0453
 166       3.214e-02      -6.224e-01      -2.596e-07          -0.000          -0.000           1.000       1.323e-05         -0.0745
 167       1.767e-02      -6.224e-01      -7.902e-07           0.000           0.000           1.000       8.257e-06         -0.1353
 168       9.352e-03      -6.224e-01      -4.704e-07           0.000           0.000           1.000       2.807e-06         -0.3374
Strip 14
 169       2.392e-01      -6.215e-01       2.929e-09           0.000          -0.000           1.000       3.278e-06         -0.0021
 170       2.341e-01      -6.215e-01       5.272e-09          -0.000          -0.000           1.000       9.643e-06         -0.0038
 171       2.226e-01      -6.215e-01      -3.634e-09           0.000           0.000           1.000       1.545e-05         -0.0055
 172       2.053e-01      -6.215e-01       2.126e-08          -0.000          -0.000           1.000       2.036e-05         -0.0075
 173       1.833e-01      -6.215e-01       3.548e-08           0.000           0.000           1.000       2.408e-05         -0.0098
 174       1.577e-01      -6.215e-01       3.358e-07           0.000           0.000           1.000       2.640e-05         -0.0125
 175       1.301e-01      -6.215e-01       9.676e-07           0.000          -0.000           1.000       2.719e-05         -0.0161
 176       1.021e-01      -6.215e-01      -1.302e-08          -0.000          -0.000           1.000       2.640e-05         -0.0224
 177       7.536e-02      -6.215e-01      -1.695e-06           0.000           0.000           1.000       2.408e-05         -0.0295
 178       5.137e-02      -6.215e-01       2.184e-06          -0.000          -0.000           1.000       2.036e-05         -0.0467
 179       3.154e-02      -6.215e-01      -2.604e-07          -0.000          -0.000           1.000       1.545e-05         -0.0764
 180       1.703e-02      -6.215e-01      -7.925e-07           0.000           0.000           1.000       9.643e-06         -0.1383
 181       8.687e-03      -6.215e-01      -4.718e-07           0.000           0.000           1.000       3.278e-06         -0.3373
Strip 15
 182       2.391e-01      -6.205e-01       2.938e-09           0.000          -0.000           1.000       3.529e-06         -0.0022
 183       2.341e-01      -6.205e-01       5.289e-09          -0.000          -0.000           1.000       1.038e-05         -0.0039
 184       2.225e-01      -6.205e-01      -3.646e-09           0.000           0.000           1.000       1.663e-05         -0.0057
 185       2.052e-01      -6.205e-01       2.132e-08          -0.000          -0.000           1.000       2.191e-05         -0.0077
 186       1.831e-01      -6.205e-01       3.560e-08           0.000           0.000           1.000       2.592e-05         -0.0101
 187       1.574e-01      -6.205e-01       3.369e-07           0.000           0.000           1.000       2.843e-05         -0.0129
 188       1.298e-01      -6.205e-01       9.707e-07           0.000          -0.000           1.000       2.928e-05         -0.0166
 189       1.017e-01      -6.205e-01      -1.306e-08          -0.000          -0.000           1.000       2.843e-05         -0.0231
 190       7.484e-02      -6.205e-01      -1.700e-06           0.000           0.000           1.000       2.592e-05         -0.0305
 191       5.076e-02      -6.205e-01       2.191e-06          -0.000          -0.000           1.000       2.191e-05         -0.0480
 192       3.087e-02      -6.205e-01      -2.612e-07          -0.000          -0.000           1.000       1.663e-05         -0.0783
 193       1.632e-02      -6.205e-01      -7.950e-07           0.000           0.000           1.000       1.038e-05         -0.1413
 194       7.945e-03      -6.205e-01      -4.733e-07           0.000           0.000           1.000       3.529e-06         -0.3367
Strip 16
 195       2.391e-01      -6.200e-01       2.943e-09           0.000          -0.000           1.000       1.168e-07         -0.0022
 196       2.341e-01      -6.200e-01       5.298e-09          -0.000          -0.000           1.000       3.437e-07         -0.0039
 197       2.225e-01      -6.200e-01      -3.652e-09           0.000           0.000           1.000       5.507e-07         -0.0057
 198       2.051e-01      -6.200e-01       2.136e-08          -0.000          -0.000           1.000       7.256e-07         -0.0078
 199       1.830e-01      -6.200e-01       3.566e-08           0.000           0.000           1.000       8.583e-07         -0.0102
 200       1.573e-01      -6.200e-01       3.374e-07           0.000           0.000           1.000       9.412e-07         -0.0130
 201       1.296e-01      -6.200e-01       9.724e-07           0.000          -0.000           1.000       9.694e-07         -0.0167
 202       1.015e-01      -6.200e-01      -1.309e-08          -0.000          -0.000           1.000       9.412e-07         -0.0232
 203       7.456e-02      -6.200e-01      -1.703e-06           0.000           0.000           1.000       8.583e-07         -0.0308
 204       5.044e-02      -6.200e-01       2.195e-06          -0.000          -0.000           1.000       7.256e-07         -0.0483
 205       3.052e-02      -6.200e-01      -2.617e-07          -0.000          -0.000           1.000       5.507e-07         -0.0787
 206       1.594e-02      -6.200e-01      -7.963e-07           0.000           0.000           1.000       3.437e-07         -0.1418
 207       7.552e-03      -6.200e-01      -4.741e-07           0.000           0.000           1.000       1.168e-07         -0.3371
Strip 17
 208       2.391e-01      -6.199e-01       2.944e-09           0.000           0.000           1.000       3.486e-07         -0.0022
 209       2.341e-01      -6.199e-01       5.299e-09          -0.000          -0.000           1.000       1.025e-06         -0.0039
 210       2.225e-01      -6.199e-01      -3.653e-09           0.000           0.000           1.000       1.643e-06         -0.0057
 211       2.051e-01      -6.199e-01       2.136e-08          -0.000          -0.000           1.000       2.165e-06         -0.0078
 212       1.830e-01      -6.199e-01       3.566e-08           0.000           0.000           1.000       2.561e-06         -0.0102
 213       1.573e-01      -6.199e-01       3.375e-07           0.000           0.000           1.000       2.808e-06         -0.0131
 214       1.296e-01      -6.199e-01       9.725e-07           0.000          -0.000           1.000       2.892e-06         -0.0168
 215       1.014e-01      -6.199e-01      -1.309e-08          -0.000          -0.000           1.000       2.808e-06         -0.0234
 216       7.453e-02      -6.199e-01      -1.703e-06           0.000           0.000           1.000       2.561e-06         -0.0310
 217       5.042e-02      -6.199e-01       2.195e-06          -0.000          -0.000           1.000       2.165e-06         -0.0486
 218       3.049e-02      -6.199e-01      -2.617e-07          -0.000          -0.000           1.000       1.643e-06         -0.0791
 219       1.591e-02      -6.199e-01      -7.965e-07           0.000           0.000           1.000       1.025e-06         -0.1422
 220       7.519e-03      -6.199e-01      -4.742e-07           0.000           0.000           1.000       3.486e-07         -0.3379
Strip 18
 221       2.391e-01      -6.198e-01       2.945e-09           0.000          -0.000           1.000       5.745e-07         -0.0022
 222       2.341e-01      -6.198e-01       5.300e-09          -0.000          -0.000           1.000       1.690e-06         -0.0039
 223       2.225e-01      -6.198e-01      -3.654e-09           0.000           0.000           1.000       2.708e-06         -0.0058
 224       2.051e-01      -6.198e-01       2.137e-08          -0.000          -0.000           1.000       3.568e-06         -0.0079
 225       1.830e-01      -6.198e-01       3.567e-08           0.000           0.000           1.000       4.220e-06         -0.0103
 226       1.573e-01      -6.198e-01       3.376e-07           0.000           0.000           1.000       4.628e-06         -0.0132
 227       1.295e-01      -6.198e-01       9.728e-07           0.000          -0.000           1.000       4.766e-06         -0.0169
 228       1.014e-01      -6.198e-01      -1.309e-08          -0.000          -0.000           1.000       4.628e-06         -0.0236
 229       7.449e-02      -6.198e-01      -1.704e-06           0.000           0.000           1.000       4.220e-06         -0.0312
 230       5.036e-02      -6.198e-01       2.196e-06          -0.000          -0.000           1.000       3.568e-06         -0.0490
 231       3.043e-02      -6.198e-01      -2.618e-07          -0.000          -0.000           1.000       2.708e-06         -0.0795
 232       1.584e-02      -6.198e-01      -7.967e-07           0.000           0.000           1.000       1.690e-06         -0.1427
 233       7.452e-03      -6.198e-01      -4.743e-07           0.000           0.000           1.000       5.745e-07         -0.3390
Strip 19
 234       2.391e-01      -6.196e-01       2.946e-09           0.000          -0.000           1.000       7.908e-07         -0.0022
 235       2.341e-01      -6.196e-01       5.302e-09          -0.000          -0.000           1.000       2.327e-06         -0.0040
 236       2.225e-01      -6.196e-01      -3.655e-09           0.000           0.000           1.000       3.727e-06         -0.0058
 237       2.051e-01      -6.196e-01       2.138e-08          -0.000          -0.000           1.000       4.911e-06         -0.0079
 238       1.829e-01      -6.196e-01       3.569e-08           0.000           0.000           1.000       5.809e-06         -0.0104
 239       1.572e-01      -6.196e-01       3.377e-07           0.000           0.000           1.000       6.370e-06         -0.0133
 240       1.295e-01      -6.196e-01       9.732e-07           0.000          -0.000           1.000       6.561e-06         -0.0171
 241       1.013e-01      -6.196e-01      -1.310e-08          -0.000          -0.000           1.000       6.370e-06         -0.0238
 242       7.442e-02      -6.196e-01      -1.704e-06           0.000           0.000           1.000       5.809e-06         -0.0315
 243       5.028e-02      -6.196e-01       2.197e-06          -0.000          -0.000           1.000       4.911e-06         -0.0494
 244       3.034e-02      -6.196e-01      -2.619e-07          -0.000          -0.000           1.000       3.727e-06         -0.0801
 245       1.575e-02      -6.196e-01      -7.970e-07           0.000           0.000           1.000       2.327e-06         -0.1432
 246       7.353e-03      -6.196e-01      -4.745e-07           0.000           0.000           1.000       7.908e-07         -0.3406
Strip 20
 247       2.391e-01      -6.193e-01       2.948e-09           0.000          -0.000           1.000       9.939e-07         -0.0023
 248       2.341e-01      -6.193e-01       5.305e-09          -0.000          -0.000           1.000       2.924e-06         -0.0040
 249       2.225e-01      -6.193e-01      -3.657e-09           0.000           0.000           1.000       4.684e-06         -0.0059
 250       2.051e-01      -6.193e-01       2.139e-08          -0.000          -0.000           1.000       6.172e-06         -0.0080
 251       1.829e-01      -6.193e-01       3.571e-08           0.000           0.000           1.000       7.301e-06         -0.0105
 252       1.572e-01      -6.193e-01       3.379e-07           0.000           0.000           1.000       8.006e-06         -0.0134
 253       1.294e-01      -6.193e-01       9.737e-07           0.000          -0.000           1.000       8.246e-06         -0.0173
 254       1.013e-01      -6.193e-01      -1.310e-08          -0.000          -0.000           1.000       8.006e-06         -0.0240
 255       7.432e-02      -6.193e-01      -1.705e-06           0.000           0.000           1.000       7.301e-06         -0.0318
 256       5.018e-02      -6.193e-01       2.198e-06          -0.000          -0.000           1.000       6.172e-06         -0.0498
 257       3.022e-02      -6.193e-01      -2.620e-07          -0.000          -0.000           1.000       4.684e-06         -0.0806
 258       1.562e-02      -6.193e-01      -7.975e-07           0.000           0.000           1.000       2.924e-06         -0.1437
 259       7.224e-03      -6.193e-01      -4.748e-07           0.000           0.000           1.000       9.939e-07         -0.3426
Strip 21
 260       2.391e-01      -6.190e-01       2.950e-09           0.000          -0.000           1.000       1.180e-06         -0.0023
 261       2.341e-01      -6.190e-01       5.309e-09          -0.000          -0.000           1.000       3.473e-06         -0.0040
 262       2.225e-01      -6.190e-01      -3.660e-09           0.000           0.000           1.000       5.563e-06         -0.0059
 263       2.051e-01      -6.190e-01       2.141e-08          -0.000          -0.000           1.000       7.330e-06         -0.0081
 264       1.829e-01      -6.190e-01       3.573e-08           0.000           0.000           1.000       8.671e-06         -0.0106
 265       1.571e-01      -6.190e-01       3.381e-07           0.000           0.000           1.000       9.508e-06         -0.0136
 266       1.293e-01      -6.190e-01       9.744e-07           0.000          -0.000           1.000       9.793e-06         -0.0175
 267       1.012e-01      -6.190e-01      -1.311e-08          -0.000          -0.000           1.000       9.508e-06         -0.0243
 268       7.421e-02      -6.190e-01      -1.707e-06           0.000           0.000           1.000       8.671e-06         -0.0322
 269       5.005e-02      -6.190e-01       2.199e-06          -0.000          -0.000           1.000       7.330e-06         -0.0503
 270       3.008e-02      -6.190e-01      -2.622e-07          -0.000          -0.000           1.000       5.563e-06         -0.0813
 271       1.547e-02      -6.190e-01      -7.980e-07           0.000           0.000           1.000       3.473e-06         -0.1443
 272       7.067e-03      -6.190e-01      -4.751e-07           0.000           0.000           1.000       1.180e-06         -0.3449
Strip 22
 273       2.391e-01      -6.186e-01       2.952e-09           0.000          -0.000           1.000       1.347e-06         -0.0023
 274       2.341e-01      -6.186e-01       5.313e-09          -0.000          -0.000           1.000       3.963e-06         -0.0041
 275       2.225e-01      -6.186e-01      -3.663e-09           0.000           0.000           1.000       6.348e-06         -0.0060
 276       2.050e-01      -6.186e-01       2.142e-08          -0.000          -0.000           1.000       8.365e-06         -0.0082
 277       1.828e-01      -6.186e-01       3.576e-08           0.000           0.000           1.000       9.895e-06         -0.0107
 278       1.570e-01      -6.186e-01       3.384e-07           0.000           0.000           1.000       1.085e-05         -0.0137
 279       1.293e-01      -6.186e-01       9.752e-07           0.000          -0.000           1.000       1.118e-05         -0.0177
 280       1.011e-01      -6.186e-01      -1.312e-08          -0.000          -0.000           1.000       1.085e-05         -0.0246
 281       7.408e-02      -6.186e-01      -1.708e-06           0.000           0.000           1.000       9.895e-06         -0.0326
 282       4.990e-02      -6.186e-01       2.201e-06          -0.000          -0.000           1.000       8.365e-06         -0.0508
 283       2.992e-02      -6.186e-01      -2.624e-07          -0.000          -0.000           1.000       6.348e-06         -0.0820
 284       1.530e-02      -6.186e-01      -7.986e-07           0.000           0.000           1.000       3.963e-06         -0.1450
 285       6.884e-03      -6.186e-01      -4.755e-07           0.000           0.000           1.000       1.347e-06         -0.3472
Strip 23
 286       2.391e-01      -6.182e-01       2.954e-09           0.000          -0.000           1.000       1.491e-06         -0.0023
 287       2.341e-01      -6.182e-01       5.318e-09          -0.000          -0.000           1.000       4.386e-06         -0.0041
 288       2.225e-01      -6.182e-01      -3.666e-09           0.000           0.000           1.000       7.027e-06         -0.0061
 289       2.050e-01      -6.182e-01       2.144e-08          -0.000          -0.000           1.000       9.259e-06         -0.0083
 290       1.828e-01      -6.182e-01       3.579e-08           0.000           0.000           1.000       1.095e-05         -0.0109
 291       1.570e-01      -6.182e-01       3.387e-07           0.000           0.000           1.000       1.201e-05         -0.0139
 292       1.292e-01      -6.182e-01       9.760e-07           0.000          -0.000           1.000       1.237e-05         -0.0179
 293       1.009e-01      -6.182e-01      -1.313e-08          -0.000          -0.000           1.000       1.201e-05         -0.0249
 294       7.394e-02      -6.182e-01      -1.709e-06           0.000           0.000           1.000       1.095e-05         -0.0331
 295       4.973e-02      -6.182e-01       2.203e-06          -0.000          -0.000           1.000       9.259e-06         -0.0514
 296       2.973e-02      -6.182e-01      -2.626e-07          -0.000          -0.000           1.000       7.027e-06         -0.0827
 297       1.510e-02      -6.182e-01      -7.993e-07           0.000           0.000           1.000       4.386e-06         -0.1459
 298       6.679e-03      -6.182e-01      -4.759e-07           0.000           0.000           1.000       1.491e-06         -0.3495
Strip 24
 299       2.391e-01      -6.178e-01       2.957e-09           0.000          -0.000           1.000       1.610e-06         -0.0024
 300       2.340e-01      -6.178e-01       5.323e-09          -0.000          -0.000           1.000       4.736e-06         -0.0042
 301       2.224e-01      -6.178e-01      -3.669e-09           0.000           0.000           1.000       7.587e-06         -0.0061
 302       2.050e-01      -6.178e-01       2.146e-08          -0.000          -0.000           1.000       9.997e-06         -0.0084
 303       1.827e-01      -6.178e-01       3.582e-08           0.000           0.000           1.000       1.183e-05         -0.0110
 304       1.569e-01      -6.178e-01       3.390e-07           0.000           0.000           1.000       1.297e-05         -0.0141
 305       1.291e-01      -6.178e-01       9.770e-07           0.000          -0.000           1.000       1.336e-05         -0.0182
 306       1.008e-01      -6.178e-01      -1.315e-08          -0.000          -0.000           1.000       1.297e-05         -0.0253
 307       7.378e-02      -6.178e-01      -1.711e-06           0.000           0.000           1.000       1.183e-05         -0.0335
 308       4.955e-02      -6.178e-01       2.205e-06          -0.000          -0.000           1.000       9.997e-06         -0.0521
 309       2.953e-02      -6.178e-01      -2.629e-07          -0.000          -0.000           1.000       7.587e-06         -0.0835
 310       1.488e-02      -6.178e-01      -8.001e-07           0.000           0.000           1.000       4.736e-06         -0.1470
 311       6.456e-03      -6.178e-01      -4.763e-07           0.000           0.000           1.000       1.610e-06         -0.3515
Strip 25
 312       2.391e-01      -6.173e-01       2.960e-09           0.000          -0.000           1.000       1.701e-06         -0.0024
 313       2.340e-01      -6.173e-01       5.328e-09          -0.000          -0.000           1.000       5.005e-06         -0.0042
 314       2.224e-01      -6.173e-01      -3.673e-09           0.000           0.000           1.000       8.019e-06         -0.0062
 315       2.049e-01      -6.173e-01       2.148e-08          -0.000          -0.000           1.000       1.057e-05         -0.0085
 316       1.826e-01      -6.173e-01       3.586e-08           0.000           0.000           1.000       1.250e-05         -0.0112
 317       1.568e-01      -6.173e-01       3.394e-07           0.000           0.000           1.000       1.371e-05         -0.0143
 318       1.289e-01      -6.173e-01       9.780e-07           0.000          -0.000           1.000       1.412e-05         -0.0184
 319       1.007e-01      -6.173e-01      -1.316e-08          -0.000          -0.000           1.000       1.371e-05         -0.0256
 320       7.361e-02      -6.173e-01      -1.713e-06           0.000           0.000           1.000       1.250e-05         -0.0340
 321       4.936e-02      -6.173e-01       2.207e-06          -0.000          -0.000           1.000       1.057e-05         -0.0527
 322       2.932e-02      -6.173e-01      -2.632e-07          -0.000          -0.000           1.000       8.019e-06         -0.0843
 323       1.465e-02      -6.173e-01      -8.009e-07           0.000           0.000           1.000       5.005e-06         -0.1482
 324       6.217e-03      -6.173e-01      -4.768e-07           0.000           0.000           1.000       1.701e-06         -0.3532
Strip 26
 325       2.391e-01      -6.168e-01       2.963e-09           0.000          -0.000           1.000       1.764e-06         -0.0024
 326       2.340e-01      -6.168e-01       5.334e-09          -0.000          -0.000           1.000       5.190e-06         -0.0043
 327       2.224e-01      -6.168e-01      -3.677e-09           0.000           0.000           1.000       8.314e-06         -0.0063
 328       2.049e-01      -6.168e-01       2.151e-08          -0.000          -0.000           1.000       1.096e-05         -0.0086
 329       1.826e-01      -6.168e-01       3.590e-08           0.000           0.000           1.000       1.296e-05         -0.0113
 330       1.567e-01      -6.168e-01       3.397e-07           0.000           0.000           1.000       1.421e-05         -0.0145
 331       1.288e-01      -6.168e-01       9.790e-07           0.000          -0.000           1.000       1.464e-05         -0.0187
 332       1.005e-01      -6.168e-01      -1.317e-08          -0.000          -0.000           1.000       1.421e-05         -0.0260
 333       7.343e-02      -6.168e-01      -1.715e-06           0.000           0.000           1.000       1.296e-05         -0.0345
 334       4.915e-02      -6.168e-01       2.210e-06          -0.000          -0.000           1.000       1.096e-05         -0.0533
 335       2.909e-02      -6.168e-01      -2.634e-07          -0.000          -0.000           1.000       8.314e-06         -0.0851
 336       1.441e-02      -6.168e-01      -8.018e-07           0.000           0.000           1.000       5.190e-06         -0.1496
 337       5.968e-03      -6.168e-01      -4.773e-07           0.000           0.000           1.000       1.764e-06         -0.3548
Strip 27
 338       2.391e-01      -6.163e-01       2.967e-09           0.000          -0.000           1.000       1.797e-06         -0.0024
 339       2.340e-01      -6.163e-01       5.340e-09          -0.000          -0.000           1.000       5.286e-06         -0.0043
 340       2.224e-01      -6.163e-01      -3.681e-09           0.000           0.000           1.000       8.468e-06         -0.0064
 341       2.049e-01      -6.163e-01       2.153e-08          -0.000          -0.000           1.000       1.116e-05         -0.0087
 342       1.825e-01      -6.163e-01       3.594e-08           0.000           0.000           1.000       1.320e-05         -0.0115
 343       1.566e-01      -6.163e-01       3.401e-07           0.000           0.000           1.000       1.447e-05         -0.0147
 344       1.287e-01      -6.163e-01       9.801e-07           0.000          -0.000           1.000       1.491e-05         -0.0190
 345       1.004e-01      -6.163e-01      -1.319e-08          -0.000          -0.000           1.000       1.447e-05         -0.0263
 346       7.325e-02      -6.163e-01      -1.717e-06           0.000           0.000           1.000       1.320e-05         -0.0350
 347       4.894e-02      -6.163e-01       2.212e-06          -0.000          -0.000           1.000       1.116e-05         -0.0540
 348       2.886e-02      -6.163e-01      -2.637e-07          -0.000          -0.000           1.000       8.468e-06         -0.0859
 349       1.417e-02      -6.163e-01      -8.026e-07           0.000           0.000           1.000       5.286e-06         -0.1509
 350       5.712e-03      -6.163e-01      -4.778e-07           0.000           0.000           1.000       1.797e-06         -0.3566
Strip 28
 351       2.391e-01      -6.160e-01       2.968e-09           0.000           0.000           1.000       1.178e-07         -0.0024
 352       2.340e-01      -6.160e-01       5.343e-09          -0.000          -0.000           1.000       3.467e-07         -0.0043
 353       2.224e-01      -6.160e-01      -3.683e-09           0.000           0.000           1.000       5.553e-07         -0.0064
 354       2.049e-01      -6.160e-01       2.154e-08          -0.000          -0.000           1.000       7.317e-07         -0.0088
 355       1.825e-01      -6.160e-01       3.596e-08           0.000           0.000           1.000       8.656e-07         -0.0115
 356       1.566e-01      -6.160e-01       3.403e-07           0.000           0.000           1.000       9.492e-07         -0.0148
 357       1.286e-01      -6.160e-01       9.806e-07           0.000          -0.000           1.000       9.776e-07         -0.0190
 358       1.003e-01      -6.160e-01      -1.320e-08          -0.000          -0.000           1.000       9.492e-07         -0.0265
 359       7.315e-02      -6.160e-01      -1.717e-06           0.000           0.000           1.000       8.656e-07         -0.0352
 360       4.884e-02      -6.160e-01       2.213e-06          -0.000          -0.000           1.000       7.317e-07         -0.0542
 361       2.874e-02      -6.160e-01      -2.639e-07          -0.000          -0.000           1.000       5.553e-07         -0.0862
 362       1.404e-02      -6.160e-01      -8.031e-07           0.000           0.000           1.000       3.467e-07         -0.1512
 363       5.578e-03      -6.160e-01      -4.781e-07           0.000           0.000           1.000       1.178e-07         -0.3576
Strip 29
 364       2.391e-01      -6.159e-01       2.969e-09           0.000          -0.000           1.000       3.515e-07         -0.0024
 365       2.340e-01      -6.159e-01       5.343e-09          -0.000          -0.000           1.000       1.034e-06         -0.0043
 366       2.224e-01      -6.159e-01      -3.683e-09           0.000           0.000           1.000       1.657e-06         -0.0064
 367       2.048e-01      -6.159e-01       2.154e-08          -0.000          -0.000           1.000       2.183e-06         -0.0088
 368       1.825e-01      -6.159e-01       3.596e-08           0.000           0.000           1.000       2.582e-06         -0.0116
 369       1.566e-01      -6.159e-01       3.403e-07           0.000           0.000           1.000       2.832e-06         -0.0148
 370       1.286e-01      -6.159e-01       9.807e-07           0.000          -0.000           1.000       2.916e-06         -0.0191
 371       1.003e-01      -6.159e-01      -1.320e-08          -0.000          -0.000           1.000       2.832e-06         -0.0266
 372       7.314e-02      -6.159e-01      -1.718e-06           0.000           0.000           1.000       2.582e-06         -0.0353
 373       4.882e-02      -6.159e-01       2.214e-06          -0.000          -0.000           1.000       2.183e-06         -0.0544
 374       2.873e-02      -6.159e-01      -2.639e-07          -0.000          -0.000           1.000       1.657e-06         -0.0864
 375       1.402e-02      -6.159e-01      -8.032e-07           0.000           0.000           1.000       1.034e-06         -0.1515
 376       5.561e-03      -6.159e-01      -4.781e-07           0.000           0.000           1.000       3.515e-07         -0.3587
Strip 30
 377       2.391e-01      -6.158e-01       2.969e-09           0.000          -0.000           1.000       5.793e-07         -0.0025
 378       2.340e-01      -6.158e-01       5.344e-09          -0.000          -0.000           1.000       1.704e-06         -0.0044
 379       2.224e-01      -6.158e-01      -3.684e-09           0.000           0.000           1.000       2.730e-06         -0.0065
 380       2.048e-01      -6.158e-01       2.155e-08          -0.000          -0.000           1.000       3.597e-06         -0.0088
 381       1.825e-01      -6.158e-01       3.597e-08           0.000           0.000           1.000       4.255e-06         -0.0116
 382       1.566e-01      -6.158e-01       3.404e-07           0.000           0.000           1.000       4.666e-06         -0.0149
 383       1.286e-01      -6.158e-01       9.808e-07           0.000          -0.000           1.000       4.806e-06         -0.0192
 384       1.002e-01      -6.158e-01      -1.320e-08          -0.000          -0.000           1.000       4.666e-06         -0.0267
 385       7.312e-02      -6.158e-01      -1.718e-06           0.000           0.000           1.000       4.255e-06         -0.0355
 386       4.879e-02      -6.158e-01       2.214e-06          -0.000          -0.000           1.000       3.597e-06         -0.0546
 387       2.870e-02      -6.158e-01      -2.639e-07          -0.000          -0.000           1.000       2.730e-06         -0.0867
 388       1.399e-02      -6.158e-01      -8.033e-07           0.000           0.000           1.000       1.704e-06         -0.1518
 389       5.528e-03      -6.158e-01      -4.782e-07           0.000           0.000           1.000       5.793e-07         -0.3602
Strip 31
 390       2.391e-01      -6.156e-01       2.970e-09           0.000          -0.000           1.000       7.972e-07         -0.0025
 391       2.340e-01      -6.156e-01       5.345e-09          -0.000          -0.000           1.000       2.345e-06         -0.0044
 392       2.224e-01      -6.156e-01      -3.685e-09           0.000           0.000           1.000       3.757e-06         -0.0065
 393       2.048e-01      -6.156e-01       2.155e-08          -0.000          -0.000           1.000       4.951e-06         -0.0089
 394       1.825e-01      -6.156e-01       3.597e-08           0.000           0.000           1.000       5.856e-06         -0.0117
 395       1.565e-01      -6.156e-01       3.405e-07           0.000           0.000           1.000       6.422e-06         -0.0150
 396       1.286e-01      -6.156e-01       9.810e-07           0.000          -0.000           1.000       6.614e-06         -0.0194
 397       1.002e-01      -6.156e-01      -1.320e-08          -0.000          -0.000           1.000       6.422e-06         -0.0269
 398       7.308e-02      -6.156e-01      -1.718e-06           0.000           0.000           1.000       5.856e-06         -0.0357
 399       4.875e-02      -6.156e-01       2.214e-06          -0.000          -0.000           1.000       4.951e-06         -0.0549
 400       2.865e-02      -6.156e-01      -2.640e-07          -0.000          -0.000           1.000       3.757e-06         -0.0871
 401       1.394e-02      -6.156e-01      -8.034e-07           0.000           0.000           1.000       2.345e-06         -0.1522
 402       5.479e-03      -6.156e-01      -4.783e-07           0.000           0.000           1.000       7.972e-07         -0.3624
Strip 32
 403       2.391e-01      -6.153e-01       2.970e-09           0.000          -0.000           1.000       1.002e-06         -0.0025
 404       2.340e-01      -6.153e-01       5.346e-09          -0.000          -0.000           1.000       2.947e-06         -0.0044
 405       2.224e-01      -6.153e-01      -3.686e-09           0.000           0.000           1.000       4.721e-06         -0.0066
 406       2.048e-01      -6.153e-01       2.156e-08          -0.000          -0.000           1.000       6.220e-06         -0.0090
 407       1.825e-01      -6.153e-01       3.598e-08           0.000           0.000           1.000       7.358e-06         -0.0118
 408       1.565e-01      -6.153e-01       3.405e-07           0.000           0.000           1.000       8.069e-06         -0.0151
 409       1.286e-01      -6.153e-01       9.813e-07           0.000          -0.000           1.000       8.310e-06         -0.0195
 410       1.002e-01      -6.153e-01      -1.321e-08          -0.000          -0.000           1.000       8.069e-06         -0.0271
 411       7.304e-02      -6.153e-01      -1.719e-06           0.000           0.000           1.000       7.358e-06         -0.0360
 412       4.870e-02      -6.153e-01       2.215e-06          -0.000          -0.000           1.000       6.220e-06         -0.0553
 413       2.859e-02      -6.153e-01      -2.641e-07          -0.000          -0.000           1.000       4.721e-06         -0.0875
 414       1.388e-02      -6.153e-01      -8.037e-07           0.000           0.000           1.000       2.947e-06         -0.1526
 415       5.414e-03      -6.153e-01      -4.784e-07           0.000           0.000           1.000       1.002e-06         -0.3652
Strip 33
 416       2.391e-01      -6.150e-01       2.971e-09           0.000           0.000           1.000       1.189e-06         -0.0025
 417       2.340e-01      -6.150e-01       5.348e-09          -0.000          -0.000           1.000       3.498e-06         -0.0044
 418       2.224e-01      -6.150e-01      -3.687e-09           0.000           0.000           1.000       5.604e-06         -0.0066
 419       2.048e-01      -6.150e-01       2.156e-08          -0.000          -0.000           1.000       7.385e-06         -0.0090
 420       1.824e-01      -6.150e-01       3.600e-08           0.000           0.000           1.000       8.736e-06         -0.0119
 421       1.565e-01      -6.150e-01       3.407e-07           0.000           0.000           1.000       9.579e-06         -0.0152
 422       1.285e-01      -6.150e-01       9.816e-07           0.000          -0.000           1.000       9.866e-06         -0.0197
 423       1.001e-01      -6.150e-01      -1.321e-08          -0.000          -0.000           1.000       9.579e-06         -0.0274
 424       7.298e-02      -6.150e-01      -1.719e-06           0.000           0.000           1.000       8.736e-06         -0.0363
 425       4.864e-02      -6.150e-01       2.216e-06          -0.000          -0.000           1.000       7.385e-06         -0.0557
 426       2.852e-02      -6.150e-01      -2.642e-07          -0.000          -0.000           1.000       5.604e-06         -0.0880
 427       1.380e-02      -6.150e-01      -8.039e-07           0.000           0.000           1.000       3.498e-06         -0.1530
 428       5.335e-03      -6.150e-01      -4.786e-07           0.000           0.000           1.000       1.189e-06         -0.3684
Strip 34
 429       2.391e-01      -6.146e-01       2.973e-09           0.000          -0.000           1.000       1.357e-06         -0.0025
 430       2.340e-01      -6.146e-01       5.350e-09          -0.000          -0.000           1.000       3.991e-06         -0.0045
 431       2.223e-01      -6.146e-01      -3.688e-09           0.000           0.000           1.000       6.393e-06         -0.0067
 432       2.048e-01      -6.146e-01       2.157e-08          -0.000          -0.000           1.000       8.424e-06         -0.0091
 433       1.824e-01      -6.146e-01       3.601e-08           0.000           0.000           1.000       9.965e-06         -0.0120
 434       1.565e-01      -6.146e-01       3.408e-07           0.000           0.000           1.000       1.093e-05         -0.0154
 435       1.285e-01      -6.146e-01       9.820e-07           0.000          -0.000           1.000       1.125e-05         -0.0199
 436       1.001e-01      -6.146e-01      -1.322e-08          -0.000          -0.000           1.000       1.093e-05         -0.0276
 437       7.291e-02      -6.146e-01      -1.720e-06           0.000           0.000           1.000       9.965e-06         -0.0367
 438       4.856e-02      -6.146e-01       2.217e-06          -0.000          -0.000           1.000       8.424e-06         -0.0562
 439       2.844e-02      -6.146e-01      -2.643e-07          -0.000          -0.000           1.000       6.393e-06         -0.0885
 440       1.371e-02      -6.146e-01      -8.043e-07           0.000           0.000           1.000       3.991e-06         -0.1536
 441       5.244e-03      -6.146e-01      -4.788e-07           0.000           0.000           1.000       1.357e-06         -0.3721
Strip 35
 442       2.391e-01      -6.142e-01       2.974e-09           0.000          -0.000           1.000       1.501e-06         -0.0025
 443       2.340e-01      -6.142e-01       5.353e-09          -0.000          -0.000           1.000       4.415e-06         -0.0045
 444       2.223e-01      -6.142e-01      -3.690e-09           0.000           0.000           1.000       7.073e-06         -0.0067
 445       2.048e-01      -6.142e-01       2.158e-08          -0.000          -0.000           1.000       9.320e-06         -0.0092
 446       1.824e-01      -6.142e-01       3.603e-08           0.000           0.000           1.000       1.103e-05         -0.0121
 447       1.564e-01      -6.142e-01       3.409e-07           0.000           0.000           1.000       1.209e-05         -0.0156
 448       1.284e-01      -6.142e-01       9.825e-07           0.000          -0.000           1.000       1.245e-05         -0.0201
 449       1.000e-01      -6.142e-01      -1.322e-08          -0.000          -0.000           1.000       1.209e-05         -0.0279
 450       7.284e-02      -6.142e-01      -1.721e-06           0.000           0.000           1.000       1.103e-05         -0.0371
 451       4.848e-02      -6.142e-01       2.218e-06          -0.000          -0.000           1.000       9.320e-06         -0.0567
 452       2.835e-02      -6.142e-01      -2.644e-07          -0.000          -0.000           1.000       7.073e-06         -0.0892
 453       1.362e-02      -6.142e-01      -8.046e-07           0.000           0.000           1.000       4.415e-06         -0.1542
 454       5.142e-03      -6.142e-01      -4.790e-07           0.000           0.000           1.000       1.501e-06         -0.3759
Strip 36
 455       2.391e-01      -6.138e-01       2.975e-09           0.000          -0.000           1.000       1.620e-06         -0.0026
 456       2.340e-01      -6.138e-01       5.355e-09          -0.000          -0.000           1.000       4.765e-06         -0.0046
 457       2.223e-01      -6.138e-01      -3.692e-09           0.000           0.000           1.000       7.633e-06         -0.0068
 458       2.048e-01      -6.138e-01       2.159e-08          -0.000          -0.000           1.000       1.006e-05         -0.0093
 459       1.824e-01      -6.138e-01       3.604e-08           0.000           0.000           1.000       1.190e-05         -0.0123
 460       1.564e-01      -6.138e-01       3.411e-07           0.000           0.000           1.000       1.305e-05         -0.0158
 461       1.284e-01      -6.138e-01       9.829e-07           0.000          -0.000           1.000       1.344e-05         -0.0204
 462       9.995e-02      -6.138e-01      -1.323e-08          -0.000          -0.000           1.000       1.305e-05         -0.0283
 463       7.276e-02      -6.138e-01      -1.722e-06           0.000           0.000           1.000       1.190e-05         -0.0376
 464       4.839e-02      -6.138e-01       2.219e-06          -0.000          -0.000           1.000       1.006e-05         -0.0572
 465       2.825e-02      -6.138e-01      -2.645e-07          -0.000          -0.000           1.000       7.633e-06         -0.0898
 466       1.351e-02      -6.138e-01      -8.050e-07           0.000           0.000           1.000       4.765e-06         -0.1551
 467       5.030e-03      -6.138e-01      -4.792e-07           0.000           0.000           1.000       1.620e-06         -0.3797
Strip 37
 468       2.391e-01      -6.133e-01       2.977e-09           0.000          -0.000           1.000       1.711e-06         -0.0026
 469       2.340e-01      -6.133e-01       5.358e-09          -0.000          -0.000           1.000       5.033e-06         -0.0046
 470       2.223e-01      -6.133e-01      -3.694e-09           0.000           0.000           1.000       8.063e-06         -0.0069
 471       2.048e-01      -6.133e-01       2.160e-08          -0.000          -0.000           1.000       1.062e-05         -0.0094
 472       1.823e-01      -6.133e-01       3.606e-08           0.000           0.000           1.000       1.257e-05         -0.0124
 473       1.563e-01      -6.133e-01       3.413e-07           0.000           0.000           1.000       1.378e-05         -0.0160
 474       1.283e-01      -6.133e-01       9.834e-07           0.000          -0.000           1.000       1.419e-05         -0.0206
 475       9.988e-02      -6.133e-01      -1.323e-08          -0.000          -0.000           1.000       1.378e-05         -0.0286
 476       7.268e-02      -6.133e-01      -1.722e-06           0.000           0.000           1.000       1.257e-05         -0.0380
 477       4.829e-02      -6.133e-01       2.220e-06          -0.000          -0.000           1.000       1.062e-05         -0.0578
 478       2.814e-02      -6.133e-01      -2.646e-07          -0.000          -0.000           1.000       8.063e-06         -0.0905
 479       1.339e-02      -6.133e-01      -8.054e-07           0.000           0.000           1.000       5.033e-06         -0.1560
 480       4.911e-03      -6.133e-01      -4.795e-07           0.000           0.000           1.000       1.711e-06         -0.3835
Strip 38
 481       2.391e-01      -6.128e-01       2.978e-09           0.000          -0.000           1.000       1.773e-06         -0.0026
 482       2.340e-01      -6.128e-01       5.361e-09          -0.000          -0.000           1.000       5.216e-06         -0.0047
[...]
1281       1.029e-01       6.231e-01      -1.295e-08          -0.000           0.000           1.000       1.731e-05         -0.0210
1282       7.622e-02       6.231e-01      -1.686e-06           0.000          -0.000           1.000       1.578e-05         -0.0277
1283       5.236e-02       6.231e-01       2.173e-06          -0.000           0.000           1.000       1.334e-05         -0.0441
1284       3.263e-02       6.231e-01      -2.590e-07          -0.000           0.000           1.000       1.013e-05         -0.0729
1285       1.820e-02       6.231e-01      -7.883e-07           0.000          -0.000           1.000       6.321e-06         -0.1326
1286       9.895e-03       6.231e-01      -4.693e-07           0.000          -0.000           1.000       2.149e-06         -0.3365
Strip 100
1287       2.392e-01       6.237e-01       2.909e-09           0.000          -0.000           1.000       1.348e-06         -0.0020
1288       2.341e-01       6.237e-01       5.236e-09          -0.000           0.000           1.000       3.967e-06         -0.0035
1289       2.227e-01       6.237e-01      -3.609e-09           0.000          -0.000           1.000       6.355e-06         -0.0051
1290       2.056e-01       6.237e-01       2.111e-08          -0.000           0.000           1.000       8.373e-06         -0.0069
1291       1.836e-01       6.237e-01       3.524e-08           0.000          -0.000           1.000       9.905e-06         -0.0091
1292       1.583e-01       6.237e-01       3.335e-07           0.000          -0.000           1.000       1.086e-05         -0.0115
1293       1.309e-01       6.237e-01       9.610e-07           0.000           0.000           1.000       1.119e-05         -0.0148
1294       1.031e-01       6.237e-01      -1.293e-08          -0.000           0.000           1.000       1.086e-05         -0.0205
1295       7.650e-02       6.237e-01      -1.683e-06           0.000          -0.000           1.000       9.905e-06         -0.0270
1296       5.267e-02       6.237e-01       2.169e-06          -0.000           0.000           1.000       8.373e-06         -0.0431
1297       3.298e-02       6.237e-01      -2.586e-07          -0.000           0.000           1.000       6.355e-06         -0.0716
1298       1.857e-02       6.237e-01      -7.870e-07           0.000          -0.000           1.000       3.967e-06         -0.1304
1299       1.028e-02       6.237e-01      -4.685e-07           0.000          -0.000           1.000       1.348e-06         -0.3349
Strip 101
1300       2.392e-01       6.239e-01       2.906e-09           0.000           0.000           1.000       4.595e-07         -0.0020
1301       2.341e-01       6.239e-01       5.231e-09          -0.000           0.000           1.000       1.352e-06         -0.0035
1302       2.227e-01       6.239e-01      -3.606e-09           0.000          -0.000           1.000       2.166e-06         -0.0050
1303       2.056e-01       6.239e-01       2.109e-08          -0.000           0.000           1.000       2.854e-06         -0.0068
1304       1.837e-01       6.239e-01       3.521e-08           0.000          -0.000           1.000       3.376e-06         -0.0089
1305       1.583e-01       6.239e-01       3.332e-07           0.000          -0.000           1.000       3.702e-06         -0.0113
1306       1.310e-01       6.239e-01       9.601e-07           0.000           0.000           1.000       3.812e-06         -0.0145
1307       1.032e-01       6.239e-01      -1.292e-08          -0.000           0.000           1.000       3.702e-06         -0.0201
1308       7.664e-02       6.239e-01      -1.682e-06           0.000          -0.000           1.000       3.376e-06         -0.0264
1309       5.283e-02       6.239e-01       2.167e-06          -0.000           0.000           1.000       2.854e-06         -0.0423
1310       3.316e-02       6.239e-01      -2.584e-07          -0.000           0.000           1.000       2.166e-06         -0.0705
1311       1.876e-02       6.239e-01      -7.863e-07           0.000          -0.000           1.000       1.352e-06         -0.1286
1312       1.048e-02       6.239e-01      -4.681e-07           0.000          -0.000           1.000       4.595e-07         -0.3331
Strip 102
1313       2.392e-01       6.250e-01       2.896e-09           0.000           0.000           1.000       6.720e-06         -0.0019
1314       2.342e-01       6.250e-01       5.213e-09          -0.000           0.000           1.000       1.977e-05         -0.0034
1315       2.228e-01       6.250e-01      -3.594e-09           0.000          -0.000           1.000       3.167e-05         -0.0049
1316       2.057e-01       6.250e-01       2.102e-08          -0.000           0.000           1.000       4.173e-05         -0.0067
1317       1.839e-01       6.250e-01       3.509e-08           0.000          -0.000           1.000       4.936e-05         -0.0087
1318       1.586e-01       6.250e-01       3.320e-07           0.000          -0.000           1.000       5.413e-05         -0.0110
1319       1.313e-01       6.250e-01       9.568e-07           0.000           0.000           1.000       5.575e-05         -0.0141
1320       1.037e-01       6.250e-01      -1.288e-08          -0.000           0.000           1.000       5.413e-05         -0.0196
1321       7.720e-02       6.250e-01      -1.676e-06           0.000          -0.000           1.000       4.936e-05         -0.0257
1322       5.348e-02       6.250e-01       2.160e-06          -0.000           0.000           1.000       4.173e-05         -0.0413
1323       3.387e-02       6.250e-01      -2.575e-07          -0.000           0.000           1.000       3.167e-05         -0.0693
1324       1.952e-02       6.250e-01      -7.836e-07           0.000          -0.000           1.000       1.977e-05         -0.1266
1325       1.127e-02       6.250e-01      -4.665e-07           0.000          -0.000           1.000       6.720e-06         -0.3315
Strip 103
1326       2.392e-01       6.267e-01       2.880e-09           0.000           0.000           1.000       4.892e-06         -0.0018
1327       2.342e-01       6.267e-01       5.184e-09          -0.000           0.000           1.000       1.439e-05         -0.0032
1328       2.229e-01       6.267e-01      -3.574e-09           0.000          -0.000           1.000       2.305e-05         -0.0046
1329       2.059e-01       6.267e-01       2.090e-08          -0.000           0.000           1.000       3.038e-05         -0.0062
1330       1.842e-01       6.267e-01       3.489e-08           0.000          -0.000           1.000       3.593e-05         -0.0081
1331       1.591e-01       6.267e-01       3.302e-07           0.000          -0.000           1.000       3.940e-05         -0.0103
1332       1.320e-01       6.267e-01       9.514e-07           0.000           0.000           1.000       4.058e-05         -0.0131
1333       1.044e-01       6.267e-01      -1.280e-08          -0.000           0.000           1.000       3.940e-05         -0.0183
1334       7.812e-02       6.267e-01      -1.666e-06           0.000          -0.000           1.000       3.593e-05         -0.0238
1335       5.452e-02       6.267e-01       2.148e-06          -0.000           0.000           1.000       3.038e-05         -0.0387
1336       3.503e-02       6.267e-01      -2.560e-07          -0.000           0.000           1.000       2.305e-05         -0.0664
1337       2.076e-02       6.267e-01      -7.792e-07           0.000          -0.000           1.000       1.439e-05         -0.1224
1338       1.255e-02       6.267e-01      -4.639e-07           0.000          -0.000           1.000       4.892e-06         -0.3181
Strip 104
1339       2.392e-01       6.277e-01       2.871e-09           0.000           0.000           1.000       1.785e-06         -0.0018
1340       2.342e-01       6.277e-01       5.167e-09          -0.000           0.000           1.000       5.250e-06         -0.0030
1341       2.229e-01       6.277e-01      -3.562e-09           0.000          -0.000           1.000       8.410e-06         -0.0044
1342       2.060e-01       6.277e-01       2.083e-08          -0.000           0.000           1.000       1.108e-05         -0.0059
1343       1.844e-01       6.277e-01       3.477e-08           0.000          -0.000           1.000       1.311e-05         -0.0077
1344       1.593e-01       6.277e-01       3.291e-07           0.000          -0.000           1.000       1.438e-05         -0.0098
1345       1.323e-01       6.277e-01       9.483e-07           0.000           0.000           1.000       1.481e-05         -0.0124
1346       1.049e-01       6.277e-01      -1.276e-08          -0.000           0.000           1.000       1.438e-05         -0.0172
1347       7.865e-02       6.277e-01      -1.661e-06           0.000          -0.000           1.000       1.311e-05         -0.0224
1348       5.513e-02       6.277e-01       2.141e-06          -0.000           0.000           1.000       1.108e-05         -0.0366
1349       3.570e-02       6.277e-01      -2.552e-07          -0.000           0.000           1.000       8.410e-06         -0.0639
1350       2.148e-02       6.277e-01      -7.767e-07           0.000          -0.000           1.000       5.250e-06         -0.1205
1351       1.330e-02       6.277e-01      -4.624e-07           0.000          -0.000           1.000       1.785e-06         -0.3026
Strip 105
1352       2.392e-01       6.294e-01       2.846e-09           0.000           0.000           1.000       9.338e-06         -0.0017
1353       2.343e-01       6.294e-01       5.122e-09          -0.000           0.000           1.000       2.747e-05         -0.0029
1354       2.231e-01       6.294e-01      -3.531e-09           0.000          -0.000           1.000       4.401e-05         -0.0041
1355       2.063e-01       6.294e-01       2.065e-08          -0.000           0.000           1.000       5.799e-05         -0.0056
1356       1.849e-01       6.294e-01       3.448e-08           0.000          -0.000           1.000       6.860e-05         -0.0072
1357       1.600e-01       6.294e-01       3.263e-07           0.000          -0.000           1.000       7.522e-05         -0.0091
1358       1.332e-01       6.294e-01       9.402e-07           0.000           0.000           1.000       7.747e-05         -0.0116
1359       1.060e-01       6.294e-01      -1.265e-08          -0.000           0.000           1.000       7.522e-05         -0.0161
1360       8.003e-02       6.294e-01      -1.647e-06           0.000          -0.000           1.000       6.860e-05         -0.0207
1361       5.672e-02       6.294e-01       2.122e-06          -0.000           0.000           1.000       5.799e-05         -0.0342
1362       3.745e-02       6.294e-01      -2.530e-07          -0.000           0.000           1.000       4.401e-05         -0.0609
1363       2.335e-02       6.294e-01      -7.700e-07           0.000          -0.000           1.000       2.747e-05         -0.1168
1364       1.524e-02       6.294e-01      -4.584e-07           0.000          -0.000           1.000       9.338e-06         -0.2936
Strip 106
1365       2.392e-01       6.314e-01       2.815e-09           0.000           0.000           1.000       3.825e-06         -0.0015
1366       2.343e-01       6.314e-01       5.066e-09          -0.000           0.000           1.000       1.125e-05         -0.0026
1367       2.233e-01       6.314e-01      -3.492e-09           0.000          -0.000           1.000       1.803e-05         -0.0037
1368       2.067e-01       6.314e-01       2.043e-08          -0.000           0.000           1.000       2.375e-05         -0.0050
1369       1.855e-01       6.314e-01       3.410e-08           0.000          -0.000           1.000       2.810e-05         -0.0065
1370       1.609e-01       6.314e-01       3.227e-07           0.000          -0.000           1.000       3.081e-05         -0.0082
1371       1.344e-01       6.314e-01       9.299e-07           0.000           0.000           1.000       3.174e-05         -0.0103
1372       1.075e-01       6.314e-01      -1.251e-08          -0.000           0.000           1.000       3.081e-05         -0.0143
1373       8.179e-02       6.314e-01      -1.629e-06           0.000          -0.000           1.000       2.810e-05         -0.0183
1374       5.873e-02       6.314e-01       2.099e-06          -0.000           0.000           1.000       2.375e-05         -0.0303
1375       3.968e-02       6.314e-01      -2.502e-07          -0.000           0.000           1.000       1.803e-05         -0.0561
1376       2.574e-02       6.314e-01      -7.615e-07           0.000          -0.000           1.000       1.125e-05         -0.1091
1377       1.772e-02       6.314e-01      -4.534e-07           0.000          -0.000           1.000       3.825e-06         -0.2819
Strip 107
1378       2.392e-01       6.334e-01       2.775e-09           0.000           0.000           1.000       9.103e-06         -0.0014
1379       2.344e-01       6.334e-01       4.994e-09          -0.000           0.000           1.000       2.678e-05         -0.0023
1380       2.235e-01       6.334e-01      -3.443e-09           0.000          -0.000           1.000       4.290e-05         -0.0033
1381       2.071e-01       6.334e-01       2.014e-08          -0.000           0.000           1.000       5.653e-05         -0.0044
1382       1.862e-01       6.334e-01       3.361e-08           0.000          -0.000           1.000       6.687e-05         -0.0057
1383       1.620e-01       6.334e-01       3.181e-07           0.000          -0.000           1.000       7.333e-05         -0.0072
1384       1.359e-01       6.334e-01       9.166e-07           0.000           0.000           1.000       7.552e-05         -0.0090
1385       1.094e-01       6.334e-01      -1.233e-08          -0.000           0.000           1.000       7.333e-05         -0.0125
1386       8.405e-02       6.334e-01      -1.605e-06           0.000          -0.000           1.000       6.687e-05         -0.0157
1387       6.132e-02       6.334e-01       2.069e-06          -0.000           0.000           1.000       5.653e-05         -0.0259
1388       4.254e-02       6.334e-01      -2.466e-07          -0.000           0.000           1.000       4.290e-05         -0.0505
1389       2.879e-02       6.334e-01      -7.507e-07           0.000          -0.000           1.000       2.678e-05         -0.1008
1390       2.089e-02       6.334e-01      -4.469e-07           0.000          -0.000           1.000       9.103e-06         -0.2705
Strip 108
1391       2.392e-01       6.354e-01       2.731e-09           0.000           0.000           1.000       3.711e-06         -0.0012
1392       2.345e-01       6.354e-01       4.915e-09          -0.000           0.000           1.000       1.092e-05         -0.0020
1393       2.238e-01       6.354e-01      -3.388e-09           0.000          -0.000           1.000       1.749e-05         -0.0028
1394       2.077e-01       6.354e-01       1.982e-08          -0.000           0.000           1.000       2.305e-05         -0.0037
1395       1.871e-01       6.354e-01       3.308e-08           0.000          -0.000           1.000       2.726e-05         -0.0048
1396       1.633e-01       6.354e-01       3.131e-07           0.000          -0.000           1.000       2.989e-05         -0.0060
1397       1.376e-01       6.354e-01       9.021e-07           0.000           0.000           1.000       3.079e-05         -0.0075
1398       1.115e-01       6.354e-01      -1.214e-08          -0.000           0.000           1.000       2.989e-05         -0.0103
1399       8.651e-02       6.354e-01      -1.580e-06           0.000          -0.000           1.000       2.726e-05         -0.0127
1400       6.414e-02       6.354e-01       2.036e-06          -0.000           0.000           1.000       2.305e-05         -0.0208
1401       4.566e-02       6.354e-01      -2.427e-07          -0.000           0.000           1.000       1.749e-05         -0.0449
1402       3.213e-02       6.354e-01      -7.388e-07           0.000          -0.000           1.000       1.092e-05         -0.0881
1403       2.435e-02       6.354e-01      -4.398e-07           0.000          -0.000           1.000       3.711e-06         -0.2450
Strip 109
1404       2.392e-01       6.374e-01       2.643e-09           0.000           0.000           1.000       8.671e-06         -0.0010
1405       2.347e-01       6.374e-01       4.756e-09          -0.000           0.000           1.000       2.551e-05         -0.0016
1406       2.243e-01       6.374e-01      -3.279e-09           0.000          -0.000           1.000       4.086e-05         -0.0022
1407       2.087e-01       6.374e-01       1.918e-08          -0.000           0.000           1.000       5.384e-05         -0.0030
1408       1.888e-01       6.374e-01       3.201e-08           0.000          -0.000           1.000       6.369e-05         -0.0038
1409       1.657e-01       6.374e-01       3.030e-07           0.000          -0.000           1.000       6.984e-05         -0.0048
1410       1.409e-01       6.374e-01       8.730e-07           0.000           0.000           1.000       7.193e-05         -0.0058
1411       1.156e-01       6.374e-01      -1.175e-08          -0.000           0.000           1.000       6.984e-05         -0.0079
1412       9.147e-02       6.374e-01      -1.529e-06           0.000          -0.001           1.000       6.369e-05         -0.0094
1413       6.982e-02       6.374e-01       1.971e-06          -0.000           0.001           1.000       5.384e-05         -0.0143
1414       5.193e-02       6.374e-01      -2.349e-07          -0.000           0.000           1.000       4.086e-05         -0.0329
1415       3.884e-02       6.374e-01      -7.150e-07           0.000          -0.000           1.000       2.551e-05         -0.0880
1416       3.131e-02       6.374e-01      -4.256e-07           0.000          -0.001           1.000       8.671e-06         -0.2123
Strip 110
1417       2.393e-01       6.394e-01       2.536e-09           0.000           0.000           1.000       3.447e-06         -0.0007
1418       2.349e-01       6.394e-01       4.565e-09          -0.000           0.000           1.000       1.014e-05         -0.0010
1419       2.249e-01       6.394e-01      -3.147e-09           0.000          -0.000           1.000       1.624e-05         -0.0014
1420       2.100e-01       6.394e-01       1.841e-08          -0.000           0.000           1.000       2.140e-05         -0.0018
1421       1.909e-01       6.394e-01       3.072e-08           0.000          -0.000           1.000       2.532e-05         -0.0023
1422       1.687e-01       6.394e-01       2.907e-07           0.000          -0.000           1.000       2.776e-05         -0.0029
1423       1.449e-01       6.394e-01       8.378e-07           0.000           0.000           1.000       2.860e-05         -0.0035
1424       1.206e-01       6.394e-01      -1.127e-08          -0.000           0.000           1.000       2.776e-05         -0.0046
1425       9.745e-02       6.394e-01      -1.467e-06           0.000          -0.001           1.000       2.532e-05         -0.0053
1426       7.667e-02       6.394e-01       1.891e-06          -0.000           0.001           1.000       2.140e-05         -0.0076
1427       5.951e-02       6.394e-01      -2.255e-07          -0.000           0.000           1.000       1.624e-05         -0.0140
1428       4.694e-02       6.394e-01      -6.862e-07           0.000          -0.000           1.000       1.014e-05         -0.0439
1429       3.972e-02       6.394e-01      -4.085e-07           0.000          -0.001           1.000       3.447e-06         -0.2140










