xflr5 v6.50

Plane Name
T1-44.0 m/s-VLM1
QInf  =   44.000000 m/s
Alpha =    0.000000
Beta  =    0.000°
Phi   =    0.000°
Ctrl  =    0.000
CL    =    0.000004
Cy    =    0.000000
Cd    =    0.006897     ICd   =    0.000000     PCd   =    0.006897
Cl   = -9.91694e-20
Cm   = -4.12753e-06
ICn   =   -0.000000     PCn   =    0.000000 
XCP   =    0.247414     YCP   =    0.000000     ZCP   =    0.000102  
XNP   =    0.000000
Bending =    0.000132

Main Wing
  y-span        Chord      Ai         Cl        PCd          ICd        CmGeom    CmAirf@chord/4    XTrtop    XTrBot      XCP       BM
   -0.6394     0.2025    -0.000    0.000001    0.007397    0.000000   -0.000001   -0.000001     0.6785    0.6788    1.1507    0.0000
   -0.6374     0.2110    -0.000    0.000001    0.007277    0.000000   -0.000001   -0.000001     0.6759    0.6761    1.2070    0.0000
   -0.6354     0.2180    -0.000    0.000001    0.007182    0.000000   -0.000001   -0.000001     0.6739    0.6740    1.1929    0.0000
   -0.6334     0.2215    -0.000    0.000001    0.007134    0.000000   -0.000002   -0.000001     0.6729    0.6730    1.2173    0.0000
   -0.6314     0.2247    -0.000    0.000001    0.007091    0.000000   -0.000002   -0.000001     0.6720    0.6720    1.2072    0.0000
   -0.6294     0.2272    -0.000    0.000001    0.007057    0.000000   -0.000002   -0.000001     0.6713    0.6713    1.2022    0.0000
   -0.6277     0.2292    -0.000    0.000002    0.007030    0.000000   -0.000002   -0.000001     0.6707    0.6707    1.1965    0.0000
   -0.6267     0.2300    -0.000    0.000002    0.007020    0.000000   -0.000002   -0.000001     0.6705    0.6704    1.1924    0.0000
   -0.6250     0.2313    -0.000    0.000002    0.007002    0.000000   -0.000002   -0.000002     0.6702    0.6701    1.1911    0.0000
   -0.6239     0.2321    -0.000    0.000002    0.006991   -0.000000   -0.000002   -0.000002     0.6699    0.6698    1.1904    0.0000
   -0.6237     0.2323    -0.000    0.000002    0.006988    0.000000   -0.000002   -0.000002     0.6699    0.6698    1.1897    0.0000
   -0.6231     0.2326    -0.000    0.000002    0.006983    0.000000   -0.000002   -0.000002     0.6698    0.6696    1.1887    0.0000
   -0.6224     0.2332    -0.000    0.000002    0.006976    0.000000   -0.000002   -0.000002     0.6696    0.6695    1.1872    0.0000
   -0.6215     0.2339    -0.000    0.000002    0.006967    0.000000   -0.000002   -0.000002     0.6694    0.6693    1.1851    0.0000
   -0.6205     0.2346    -0.000    0.000002    0.006956    0.000000   -0.000002   -0.000002     0.6692    0.6690    1.1825    0.0000
   -0.6200     0.2350    -0.000    0.000002    0.006951   -0.000000   -0.000002   -0.000002     0.6691    0.6689    1.1819    0.0000
   -0.6199     0.2350    -0.000    0.000002    0.006950   -0.000000   -0.000002   -0.000002     0.6691    0.6689    1.1812    0.0000
   -0.6198     0.2351    -0.000    0.000002    0.006950    0.000000   -0.000002   -0.000002     0.6691    0.6689    1.1804    0.0000
   -0.6196     0.2352    -0.000    0.000002    0.006948    0.000000   -0.000002   -0.000002     0.6690    0.6689    1.1796    0.0000
   -0.6193     0.2353    -0.000    0.000002    0.006946    0.000000   -0.000002   -0.000002     0.6690    0.6688    1.1786    0.0000
   -0.6190     0.2355    -0.000    0.000002    0.006944    0.000000   -0.000002   -0.000002     0.6690    0.6688    1.1775    0.0000
   -0.6186     0.2357    -0.000    0.000002    0.006942    0.000000   -0.000002   -0.000002     0.6689    0.6687    1.1764    0.0000
   -0.6182     0.2359    -0.000    0.000002    0.006939    0.000000   -0.000002   -0.000002     0.6688    0.6687    1.1754    0.0000
   -0.6178     0.2361    -0.000    0.000002    0.006936    0.000000   -0.000002   -0.000002     0.6688    0.6686    1.1743    0.0000
   -0.6173     0.2364    -0.000    0.000002    0.006933    0.000000   -0.000002   -0.000002     0.6687    0.6685    1.1732    0.0000
   -0.6168     0.2366    -0.000    0.000002    0.006929    0.000000   -0.000002   -0.000002     0.6686    0.6685    1.1722    0.0000
   -0.6163     0.2369    -0.000    0.000002    0.006926    0.000000   -0.000002   -0.000002     0.6686    0.6684    1.1712    0.0000
   -0.6160     0.2370    -0.000    0.000002    0.006924   -0.000000   -0.000002   -0.000002     0.6685    0.6683    1.1709    0.0000
   -0.6159     0.2370    -0.000    0.000002    0.006924    0.000000   -0.000002   -0.000002     0.6685    0.6683    1.1706    0.0000
   -0.6158     0.2371    -0.000    0.000002    0.006923    0.000000   -0.000003   -0.000002     0.6685    0.6683    1.1702    0.0000
   -0.6156     0.2371    -0.000    0.000002    0.006922    0.000000   -0.000003   -0.000002     0.6685    0.6683    1.1697    0.0000
   -0.6153     0.2372    -0.000    0.000002    0.006922    0.000000   -0.000003   -0.000002     0.6685    0.6683    1.1691    0.0000
   -0.6150     0.2372    -0.000    0.000002    0.006920    0.000000   -0.000003   -0.000002     0.6685    0.6683    1.1684    0.0000
   -0.6146     0.2373    -0.000    0.000002    0.006919    0.000000   -0.000003   -0.000002     0.6684    0.6682    1.1677    0.0000
   -0.6142     0.2374    -0.000    0.000002    0.006918    0.000000   -0.000003   -0.000002     0.6684    0.6682    1.1671    0.0000
   -0.6138     0.2376    -0.000    0.000002    0.006916    0.000000   -0.000003   -0.000002     0.6684    0.6682    1.1664    0.0000
   -0.6133     0.2377    -0.000    0.000002    0.006915    0.000000   -0.000003   -0.000002     0.6683    0.6681    1.1656    0.0000
   -0.6128     0.2378    -0.000    0.000002    0.006913    0.000000   -0.000003   -0.000002     0.6683    0.6681    1.1649    0.0000
   -0.6123     0.2379    -0.000    0.000002    0.006911    0.000000   -0.000003   -0.000002     0.6683    0.6681    1.1641    0.0000
   -0.6119     0.2380    -0.000    0.000002    0.006910    0.000000   -0.000003   -0.000002     0.6682    0.6680    1.1636    0.0000
   -0.6117     0.2381    -0.000    0.000002    0.006909    0.000000   -0.000003   -0.000002     0.6682    0.6680    1.1631    0.0000
   -0.6111     0.2382    -0.000    0.000002    0.006907    0.000000   -0.000003   -0.000002     0.6682    0.6680    1.1622    0.0000
   -0.6104     0.2384    -0.000    0.000002    0.006905    0.000000   -0.000003   -0.000002     0.6681    0.6679    1.1610    0.0000
   -0.6095     0.2386    -0.000    0.000002    0.006902    0.000000   -0.000003   -0.000002     0.6681    0.6678    1.1594    0.0000
   -0.6085     0.2389    -0.000    0.000002    0.006900    0.000000   -0.000003   -0.000002     0.6680    0.6678    1.1574    0.0000
   -0.6077     0.2391    -0.000    0.000003    0.006898    0.000000   -0.000003   -0.000002     0.6679    0.6677    1.1554    0.0000
   -0.6067     0.2393    -0.000    0.000003    0.006896    0.000000   -0.000003   -0.000002     0.6679    0.6677    1.1532    0.0000
   -0.6050     0.2397    -0.000    0.000003    0.006892    0.000000   -0.000003   -0.000002     0.6678    0.6675    1.1494    0.0000
   -0.6037     0.2400    -0.000    0.000003    0.006890    0.000000   -0.000003   -0.000002     0.6677    0.6675    1.1464    0.0000
   -0.6027     0.2400    -0.000    0.000003    0.006890    0.000000   -0.000003   -0.000002     0.6677    0.6675    1.1436    0.0000
   -0.6010     0.2400    -0.000    0.000003    0.006890    0.000000   -0.000003   -0.000003     0.6677    0.6675    1.1392    0.0000
   -0.5772     0.2400    -0.000    0.000003    0.006890    0.000000   -0.000004   -0.000003     0.6677    0.6675    1.1307    0.0000
   -0.4893     0.2400    -0.000    0.000004    0.006890    0.000000   -0.000004   -0.000003     0.6677    0.6675    1.0727    0.0000
   -0.3269     0.2400    -0.000    0.000004    0.006890    0.000000   -0.000004   -0.000003     0.6677    0.6675    1.0205    0.0000
   -0.1148     0.2400    -0.000    0.000004    0.006890    0.000000   -0.000004   -0.000003     0.6677    0.6675    0.9948    0.0001
    0.1148     0.2400    -0.000    0.000004    0.006890    0.000000   -0.000004   -0.000003     0.6677    0.6675    0.9948    0.0001
    0.3269     0.2400    -0.000    0.000004    0.006890    0.000000   -0.000004   -0.000003     0.6677    0.6675    1.0205    0.0000
    0.4893     0.2400    -0.000    0.000004    0.006890    0.000000   -0.000004   -0.000003     0.6677    0.6675    1.0727    0.0000
    0.5772     0.2400    -0.000    0.000003    0.006890    0.000000   -0.000004   -0.000003     0.6677    0.6675    1.1307    0.0000
    0.6010     0.2400    -0.000    0.000003    0.006890    0.000000   -0.000003   -0.000003     0.6677    0.6675    1.1392    0.0000
    0.6027     0.2400    -0.000    0.000003    0.006890    0.000000   -0.000003   -0.000002     0.6677    0.6675    1.1436    0.0000
    0.6037     0.2400    -0.000    0.000003    0.006890    0.000000   -0.000003   -0.000002     0.6677    0.6675    1.1464    0.0000
    0.6050     0.2397    -0.000    0.000003    0.006892    0.000000   -0.000003   -0.000002     0.6678    0.6675    1.1494    0.0000
    0.6067     0.2393    -0.000    0.000003    0.006896    0.000000   -0.000003   -0.000002     0.6679    0.6677    1.1532    0.0000
    0.6077     0.2391    -0.000    0.000003    0.006898    0.000000   -0.000003   -0.000002     0.6679    0.6677    1.1554    0.0000
    0.6085     0.2389    -0.000    0.000002    0.006900    0.000000   -0.000003   -0.000002     0.6680    0.6678    1.1574    0.0000
    0.6095     0.2386    -0.000    0.000002    0.006902    0.000000   -0.000003   -0.000002     0.6681    0.6678    1.1594    0.0000
    0.6104     0.2384    -0.000    0.000002    0.006905    0.000000   -0.000003   -0.000002     0.6681    0.6679    1.1610    0.0000
    0.6111     0.2382    -0.000    0.000002    0.006907    0.000000   -0.000003   -0.000002     0.6682    0.6680    1.1622    0.0000
    0.6117     0.2381    -0.000    0.000002    0.006909    0.000000   -0.000003   -0.000002     0.6682    0.6680    1.1631    0.0000
    0.6119     0.2380    -0.000    0.000002    0.006910    0.000000   -0.000003   -0.000002     0.6682    0.6680    1.1636    0.0000
    0.6123     0.2379    -0.000    0.000002    0.006911    0.000000   -0.000003   -0.000002     0.6683    0.6681    1.1641    0.0000
    0.6128     0.2378    -0.000    0.000002    0.006913    0.000000   -0.000003   -0.000002     0.6683    0.6681    1.1649    0.0000
    0.6133     0.2377    -0.000    0.000002    0.006915    0.000000   -0.000003   -0.000002     0.6683    0.6681    1.1656    0.0000
    0.6138     0.2376    -0.000    0.000002    0.006916    0.000000   -0.000003   -0.000002     0.6684    0.6682    1.1664    0.0000
    0.6142     0.2374    -0.000    0.000002    0.006918    0.000000   -0.000003   -0.000002     0.6684    0.6682    1.1671    0.0000
    0.6146     0.2373    -0.000    0.000002    0.006919    0.000000   -0.000003   -0.000002     0.6684    0.6682    1.1677    0.0000
    0.6150     0.2372    -0.000    0.000002    0.006920    0.000000   -0.000003   -0.000002     0.6685    0.6683    1.1684    0.0000
    0.6153     0.2372    -0.000    0.000002    0.006922    0.000000   -0.000003   -0.000002     0.6685    0.6683    1.1691    0.0000
    0.6156     0.2371    -0.000    0.000002    0.006922    0.000000   -0.000003   -0.000002     0.6685    0.6683    1.1697    0.0000
    0.6158     0.2371    -0.000    0.000002    0.006923    0.000000   -0.000003   -0.000002     0.6685    0.6683    1.1702    0.0000
    0.6159     0.2370    -0.000    0.000002    0.006924    0.000000   -0.000002   -0.000002     0.6685    0.6683    1.1706    0.0000
    0.6160     0.2370    -0.000    0.000002    0.006924   -0.000000   -0.000002   -0.000002     0.6685    0.6683    1.1709    0.0000
    0.6163     0.2369    -0.000    0.000002    0.006926    0.000000   -0.000002   -0.000002     0.6686    0.6684    1.1712    0.0000
    0.6168     0.2366    -0.000    0.000002    0.006929    0.000000   -0.000002   -0.000002     0.6686    0.6685    1.1722    0.0000
    0.6173     0.2364    -0.000    0.000002    0.006933    0.000000   -0.000002   -0.000002     0.6687    0.6685    1.1732    0.0000
    0.6178     0.2361    -0.000    0.000002    0.006936    0.000000   -0.000002   -0.000002     0.6688    0.6686    1.1743    0.0000
    0.6182     0.2359    -0.000    0.000002    0.006939    0.000000   -0.000002   -0.000002     0.6688    0.6687    1.1754    0.0000
    0.6186     0.2357    -0.000    0.000002    0.006942    0.000000   -0.000002   -0.000002     0.6689    0.6687    1.1764    0.0000
    0.6190     0.2355    -0.000    0.000002    0.006944    0.000000   -0.000002   -0.000002     0.6690    0.6688    1.1775    0.0000
    0.6193     0.2353    -0.000    0.000002    0.006946    0.000000   -0.000002   -0.000002     0.6690    0.6688    1.1786    0.0000
    0.6196     0.2352    -0.000    0.000002    0.006948    0.000000   -0.000002   -0.000002     0.6690    0.6689    1.1796    0.0000
    0.6198     0.2351    -0.000    0.000002    0.006950    0.000000   -0.000002   -0.000002     0.6691    0.6689    1.1804    0.0000
    0.6199     0.2350    -0.000    0.000002    0.006950   -0.000000   -0.000002   -0.000002     0.6691    0.6689    1.1812    0.0000
    0.6200     0.2350    -0.000    0.000002    0.006951   -0.000000   -0.000002   -0.000002     0.6691    0.6689    1.1819    0.0000
    0.6205     0.2346    -0.000    0.000002    0.006956    0.000000   -0.000002   -0.000002     0.6692    0.6690    1.1825    0.0000
    0.6215     0.2339    -0.000    0.000002    0.006967    0.000000   -0.000002   -0.000002     0.6694    0.6693    1.1851    0.0000
    0.6224     0.2332    -0.000    0.000002    0.006976    0.000000   -0.000002   -0.000002     0.6696    0.6695    1.1872    0.0000
    0.6231     0.2326    -0.000    0.000002    0.006983    0.000000   -0.000002   -0.000002     0.6698    0.6696    1.1887    0.0000
    0.6237     0.2323    -0.000    0.000002    0.006988    0.000000   -0.000002   -0.000002     0.6699    0.6698    1.1897    0.0000
    0.6239     0.2321    -0.000    0.000002    0.006991   -0.000000   -0.000002   -0.000002     0.6699    0.6698    1.1904    0.0000
    0.6250     0.2313    -0.000    0.000002    0.007002    0.000000   -0.000002   -0.000002     0.6702    0.6701    1.1911    0.0000
    0.6267     0.2300    -0.000    0.000002    0.007020    0.000000   -0.000002   -0.000001     0.6705    0.6704    1.1924    0.0000
    0.6277     0.2292    -0.000    0.000002    0.007030    0.000000   -0.000002   -0.000001     0.6707    0.6707    1.1965    0.0000
    0.6294     0.2272    -0.000    0.000001    0.007057    0.000000   -0.000002   -0.000001     0.6713    0.6713    1.2022    0.0000
    0.6314     0.2247    -0.000    0.000001    0.007091    0.000000   -0.000002   -0.000001     0.6720    0.6720    1.2072    0.0000
    0.6334     0.2215    -0.000    0.000001    0.007134    0.000000   -0.000002   -0.000001     0.6729    0.6730    1.2173    0.0000
    0.6354     0.2180    -0.000    0.000001    0.007182    0.000000   -0.000001   -0.000001     0.6739    0.6740    1.1929    0.0000
    0.6374     0.2110    -0.000    0.000001    0.007277    0.000000   -0.000001   -0.000001     0.6759    0.6761    1.2070    0.0000
    0.6394     0.2025    -0.000    0.000001    0.007397    0.000000   -0.000001   -0.000001     0.6785    0.6788    1.1507    0.0000


Main Wing Cp Coefficients
 Panel     CtrlPt.x        CtrlPt.y        CtrlPt.z       Nx      Ny       Nz        Area       Cp
Main WingCp Coefficients
Strip 1
   0       2.393e-01      -6.394e-01       2.536e-09           0.000          -0.000           1.000       3.447e-06          0.0000
   1       2.349e-01      -6.394e-01       4.565e-09          -0.000          -0.000           1.000       1.014e-05         -0.0000
   2       2.249e-01      -6.394e-01      -3.147e-09           0.000           0.000           1.000       1.624e-05          0.0000
   3       2.100e-01      -6.394e-01       1.841e-08          -0.000          -0.000           1.000       2.140e-05         -0.0000
   4       1.909e-01      -6.394e-01       3.072e-08           0.000           0.000           1.000       2.532e-05         -0.0000
   5       1.687e-01      -6.394e-01       2.907e-07           0.000           0.000           1.000       2.776e-05          0.0000
   6       1.449e-01      -6.394e-01       8.378e-07           0.000          -0.000           1.000       2.860e-05          0.0001
   7       1.206e-01      -6.394e-01      -1.127e-08          -0.000          -0.000           1.000       2.776e-05         -0.0002
   8       9.745e-02      -6.394e-01      -1.467e-06           0.000           0.001           1.000       2.532e-05          0.0002
   9       7.667e-02      -6.394e-01       1.891e-06          -0.000          -0.001           1.000       2.140e-05          0.0000
  10       5.951e-02      -6.394e-01      -2.255e-07          -0.000          -0.000           1.000       1.624e-05         -0.0000
  11       4.694e-02      -6.394e-01      -6.862e-07           0.000           0.000           1.000       1.014e-05         -0.0001
  12       3.972e-02      -6.394e-01      -4.085e-07           0.000           0.001           1.000       3.447e-06          0.0001
Strip 2
  13       2.392e-01      -6.374e-01       2.643e-09           0.000          -0.000           1.000       8.671e-06          0.0000
  14       2.347e-01      -6.374e-01       4.756e-09          -0.000          -0.000           1.000       2.551e-05         -0.0000
  15       2.243e-01      -6.374e-01      -3.279e-09           0.000           0.000           1.000       4.086e-05          0.0000
  16       2.087e-01      -6.374e-01       1.918e-08          -0.000          -0.000           1.000       5.384e-05         -0.0000
  17       1.888e-01      -6.374e-01       3.201e-08           0.000           0.000           1.000       6.369e-05         -0.0000
  18       1.657e-01      -6.374e-01       3.030e-07           0.000           0.000           1.000       6.984e-05          0.0000
  19       1.409e-01      -6.374e-01       8.730e-07           0.000          -0.000           1.000       7.193e-05          0.0002
  20       1.156e-01      -6.374e-01      -1.175e-08          -0.000          -0.000           1.000       6.984e-05         -0.0004
  21       9.147e-02      -6.374e-01      -1.529e-06           0.000           0.001           1.000       6.369e-05          0.0003
  22       6.982e-02      -6.374e-01       1.971e-06          -0.000          -0.001           1.000       5.384e-05          0.0000
  23       5.193e-02      -6.374e-01      -2.349e-07          -0.000          -0.000           1.000       4.086e-05         -0.0001
  24       3.884e-02      -6.374e-01      -7.150e-07           0.000           0.000           1.000       2.551e-05         -0.0001
  25       3.131e-02      -6.374e-01      -4.256e-07           0.000           0.001           1.000       8.671e-06          0.0001
Strip 3
  26       2.392e-01      -6.354e-01       2.731e-09           0.000          -0.000           1.000       3.711e-06          0.0000
  27       2.345e-01      -6.354e-01       4.915e-09          -0.000          -0.000           1.000       1.092e-05         -0.0000
  28       2.238e-01      -6.354e-01      -3.388e-09           0.000           0.000           1.000       1.749e-05          0.0000
  29       2.077e-01      -6.354e-01       1.982e-08          -0.000          -0.000           1.000       2.305e-05         -0.0000
  30       1.871e-01      -6.354e-01       3.308e-08           0.000           0.000           1.000       2.726e-05         -0.0000
  31       1.633e-01      -6.354e-01       3.131e-07           0.000           0.000           1.000       2.989e-05          0.0001
  32       1.376e-01      -6.354e-01       9.021e-07           0.000          -0.000           1.000       3.079e-05          0.0002
  33       1.115e-01      -6.354e-01      -1.214e-08          -0.000          -0.000           1.000       2.989e-05         -0.0005
  34       8.651e-02      -6.354e-01      -1.580e-06           0.000           0.000           1.000       2.726e-05          0.0004
  35       6.414e-02      -6.354e-01       2.036e-06          -0.000          -0.000           1.000       2.305e-05         -0.0000
  36       4.566e-02      -6.354e-01      -2.427e-07          -0.000          -0.000           1.000       1.749e-05         -0.0001
  37       3.213e-02      -6.354e-01      -7.388e-07           0.000           0.000           1.000       1.092e-05         -0.0001
  38       2.435e-02      -6.354e-01      -4.398e-07           0.000           0.000           1.000       3.711e-06          0.0003
Strip 4
  39       2.392e-01      -6.334e-01       2.775e-09           0.000          -0.000           1.000       9.103e-06          0.0000
  40       2.344e-01      -6.334e-01       4.994e-09          -0.000          -0.000           1.000       2.678e-05         -0.0000
  41       2.235e-01      -6.334e-01      -3.443e-09           0.000           0.000           1.000       4.290e-05          0.0000
  42       2.071e-01      -6.334e-01       2.014e-08          -0.000          -0.000           1.000       5.653e-05         -0.0000
  43       1.862e-01      -6.334e-01       3.361e-08           0.000           0.000           1.000       6.687e-05         -0.0000
  44       1.620e-01      -6.334e-01       3.181e-07           0.000           0.000           1.000       7.333e-05          0.0001
  45       1.359e-01      -6.334e-01       9.166e-07           0.000          -0.000           1.000       7.552e-05          0.0002
  46       1.094e-01      -6.334e-01      -1.233e-08          -0.000          -0.000           1.000       7.333e-05         -0.0005
  47       8.405e-02      -6.334e-01      -1.605e-06           0.000           0.000           1.000       6.687e-05          0.0005
  48       6.132e-02      -6.334e-01       2.069e-06          -0.000          -0.000           1.000       5.653e-05         -0.0001
  49       4.254e-02      -6.334e-01      -2.466e-07          -0.000          -0.000           1.000       4.290e-05         -0.0001
  50       2.879e-02      -6.334e-01      -7.507e-07           0.000           0.000           1.000       2.678e-05         -0.0001
  51       2.089e-02      -6.334e-01      -4.469e-07           0.000           0.000           1.000       9.103e-06          0.0004
Strip 5
  52       2.392e-01      -6.314e-01       2.815e-09           0.000          -0.000           1.000       3.825e-06          0.0000
  53       2.343e-01      -6.314e-01       5.066e-09          -0.000          -0.000           1.000       1.125e-05         -0.0000
  54       2.233e-01      -6.314e-01      -3.492e-09           0.000           0.000           1.000       1.803e-05          0.0000
  55       2.067e-01      -6.314e-01       2.043e-08          -0.000          -0.000           1.000       2.375e-05         -0.0000
  56       1.855e-01      -6.314e-01       3.410e-08           0.000           0.000           1.000       2.810e-05         -0.0000
  57       1.609e-01      -6.314e-01       3.227e-07           0.000           0.000           1.000       3.081e-05          0.0001
  58       1.344e-01      -6.314e-01       9.299e-07           0.000          -0.000           1.000       3.174e-05          0.0002
  59       1.075e-01      -6.314e-01      -1.251e-08          -0.000          -0.000           1.000       3.081e-05         -0.0006
  60       8.179e-02      -6.314e-01      -1.629e-06           0.000           0.000           1.000       2.810e-05          0.0005
  61       5.873e-02      -6.314e-01       2.099e-06          -0.000          -0.000           1.000       2.375e-05         -0.0001
  62       3.968e-02      -6.314e-01      -2.502e-07          -0.000          -0.000           1.000       1.803e-05         -0.0002
  63       2.574e-02      -6.314e-01      -7.615e-07           0.000           0.000           1.000       1.125e-05         -0.0002
  64       1.772e-02      -6.314e-01      -4.534e-07           0.000           0.000           1.000       3.825e-06          0.0004
Strip 6
  65       2.392e-01      -6.294e-01       2.846e-09           0.000          -0.000           1.000       9.338e-06          0.0000
  66       2.343e-01      -6.294e-01       5.122e-09          -0.000          -0.000           1.000       2.747e-05         -0.0000
  67       2.231e-01      -6.294e-01      -3.531e-09           0.000           0.000           1.000       4.401e-05          0.0000
  68       2.063e-01      -6.294e-01       2.065e-08          -0.000          -0.000           1.000       5.799e-05         -0.0000
  69       1.849e-01      -6.294e-01       3.448e-08           0.000           0.000           1.000       6.860e-05         -0.0000
  70       1.600e-01      -6.294e-01       3.263e-07           0.000           0.000           1.000       7.522e-05          0.0001
  71       1.332e-01      -6.294e-01       9.402e-07           0.000          -0.000           1.000       7.747e-05          0.0002
  72       1.060e-01      -6.294e-01      -1.265e-08          -0.000          -0.000           1.000       7.522e-05         -0.0006
  73       8.003e-02      -6.294e-01      -1.647e-06           0.000           0.000           1.000       6.860e-05          0.0006
  74       5.672e-02      -6.294e-01       2.122e-06          -0.000          -0.000           1.000       5.799e-05         -0.0001
  75       3.745e-02      -6.294e-01      -2.530e-07          -0.000          -0.000           1.000       4.401e-05         -0.0002
  76       2.335e-02      -6.294e-01      -7.700e-07           0.000           0.000           1.000       2.747e-05         -0.0002
  77       1.524e-02      -6.294e-01      -4.584e-07           0.000           0.000           1.000       9.338e-06          0.0005
Strip 7
  78       2.392e-01      -6.277e-01       2.871e-09           0.000          -0.000           1.000       1.785e-06          0.0000
  79       2.342e-01      -6.277e-01       5.167e-09          -0.000          -0.000           1.000       5.250e-06         -0.0000
  80       2.229e-01      -6.277e-01      -3.562e-09           0.000           0.000           1.000       8.410e-06          0.0000
  81       2.060e-01      -6.277e-01       2.083e-08          -0.000          -0.000           1.000       1.108e-05         -0.0000
  82       1.844e-01      -6.277e-01       3.477e-08           0.000           0.000           1.000       1.311e-05         -0.0000
  83       1.593e-01      -6.277e-01       3.291e-07           0.000           0.000           1.000       1.438e-05          0.0001
  84       1.323e-01      -6.277e-01       9.483e-07           0.000          -0.000           1.000       1.481e-05          0.0002
  85       1.049e-01      -6.277e-01      -1.276e-08          -0.000          -0.000           1.000       1.438e-05         -0.0007
  86       7.865e-02      -6.277e-01      -1.661e-06           0.000           0.000           1.000       1.311e-05          0.0006
  87       5.513e-02      -6.277e-01       2.141e-06          -0.000          -0.000           1.000       1.108e-05         -0.0001
  88       3.570e-02      -6.277e-01      -2.552e-07          -0.000          -0.000           1.000       8.410e-06         -0.0002
  89       2.148e-02      -6.277e-01      -7.767e-07           0.000           0.000           1.000       5.250e-06         -0.0002
  90       1.330e-02      -6.277e-01      -4.624e-07           0.000           0.000           1.000       1.785e-06          0.0005
Strip 8
  91       2.392e-01      -6.267e-01       2.880e-09           0.000          -0.000           1.000       4.892e-06          0.0000
  92       2.342e-01      -6.267e-01       5.184e-09          -0.000          -0.000           1.000       1.439e-05         -0.0000
  93       2.229e-01      -6.267e-01      -3.574e-09           0.000           0.000           1.000       2.305e-05          0.0000
  94       2.059e-01      -6.267e-01       2.090e-08          -0.000          -0.000           1.000       3.038e-05         -0.0000
  95       1.842e-01      -6.267e-01       3.489e-08           0.000           0.000           1.000       3.593e-05         -0.0000
  96       1.591e-01      -6.267e-01       3.302e-07           0.000           0.000           1.000       3.940e-05          0.0001
  97       1.320e-01      -6.267e-01       9.514e-07           0.000          -0.000           1.000       4.058e-05          0.0003
  98       1.044e-01      -6.267e-01      -1.280e-08          -0.000          -0.000           1.000       3.940e-05         -0.0007
  99       7.812e-02      -6.267e-01      -1.666e-06           0.000           0.000           1.000       3.593e-05          0.0006
 100       5.452e-02      -6.267e-01       2.148e-06          -0.000          -0.000           1.000       3.038e-05         -0.0001
 101       3.503e-02      -6.267e-01      -2.560e-07          -0.000          -0.000           1.000       2.305e-05         -0.0002
 102       2.076e-02      -6.267e-01      -7.792e-07           0.000           0.000           1.000       1.439e-05         -0.0002
 103       1.255e-02      -6.267e-01      -4.639e-07           0.000           0.000           1.000       4.892e-06          0.0006
Strip 9
 104       2.392e-01      -6.250e-01       2.896e-09           0.000          -0.000           1.000       6.720e-06          0.0000
 105       2.342e-01      -6.250e-01       5.213e-09          -0.000          -0.000           1.000       1.977e-05         -0.0000
 106       2.228e-01      -6.250e-01      -3.594e-09           0.000           0.000           1.000       3.167e-05          0.0000
 107       2.057e-01      -6.250e-01       2.102e-08          -0.000          -0.000           1.000       4.173e-05         -0.0000
 108       1.839e-01      -6.250e-01       3.509e-08           0.000           0.000           1.000       4.936e-05         -0.0000
 109       1.586e-01      -6.250e-01       3.320e-07           0.000           0.000           1.000       5.413e-05          0.0001
 110       1.313e-01      -6.250e-01       9.568e-07           0.000          -0.000           1.000       5.575e-05          0.0003
 111       1.037e-01      -6.250e-01      -1.288e-08          -0.000          -0.000           1.000       5.413e-05         -0.0007
 112       7.720e-02      -6.250e-01      -1.676e-06           0.000           0.000           1.000       4.936e-05          0.0007
 113       5.348e-02      -6.250e-01       2.160e-06          -0.000          -0.000           1.000       4.173e-05         -0.0001
 114       3.387e-02      -6.250e-01      -2.575e-07          -0.000          -0.000           1.000       3.167e-05         -0.0002
 115       1.952e-02      -6.250e-01      -7.836e-07           0.000           0.000           1.000       1.977e-05         -0.0002
 116       1.127e-02      -6.250e-01      -4.665e-07           0.000           0.000           1.000       6.720e-06          0.0006
Strip 10
 117       2.392e-01      -6.239e-01       2.906e-09           0.000          -0.000           1.000       4.595e-07          0.0000
 118       2.341e-01      -6.239e-01       5.231e-09          -0.000          -0.000           1.000       1.352e-06         -0.0000
 119       2.227e-01      -6.239e-01      -3.606e-09           0.000           0.000           1.000       2.166e-06          0.0000
 120       2.056e-01      -6.239e-01       2.109e-08          -0.000          -0.000           1.000       2.854e-06         -0.0000
 121       1.837e-01      -6.239e-01       3.521e-08           0.000           0.000           1.000       3.376e-06         -0.0000
 122       1.583e-01      -6.239e-01       3.332e-07           0.000           0.000           1.000       3.702e-06          0.0001
 123       1.310e-01      -6.239e-01       9.601e-07           0.000          -0.000           1.000       3.812e-06          0.0003
 124       1.032e-01      -6.239e-01      -1.292e-08          -0.000          -0.000           1.000       3.702e-06         -0.0007
 125       7.664e-02      -6.239e-01      -1.682e-06           0.000           0.000           1.000       3.376e-06          0.0007
 126       5.283e-02      -6.239e-01       2.167e-06          -0.000          -0.000           1.000       2.854e-06         -0.0001
 127       3.316e-02      -6.239e-01      -2.584e-07          -0.000          -0.000           1.000       2.166e-06         -0.0002
 128       1.876e-02      -6.239e-01      -7.863e-07           0.000           0.000           1.000       1.352e-06         -0.0002
 129       1.048e-02      -6.239e-01      -4.681e-07           0.000           0.000           1.000       4.595e-07          0.0006
Strip 11
 130       2.392e-01      -6.237e-01       2.909e-09           0.000           0.000           1.000       1.348e-06          0.0000
 131       2.341e-01      -6.237e-01       5.236e-09          -0.000          -0.000           1.000       3.967e-06         -0.0000
 132       2.227e-01      -6.237e-01      -3.609e-09           0.000           0.000           1.000       6.355e-06          0.0000
 133       2.056e-01      -6.237e-01       2.111e-08          -0.000          -0.000           1.000       8.373e-06         -0.0000
 134       1.836e-01      -6.237e-01       3.524e-08           0.000           0.000           1.000       9.905e-06         -0.0000
 135       1.583e-01      -6.237e-01       3.335e-07           0.000           0.000           1.000       1.086e-05          0.0001
 136       1.309e-01      -6.237e-01       9.610e-07           0.000          -0.000           1.000       1.119e-05          0.0003
 137       1.031e-01      -6.237e-01      -1.293e-08          -0.000          -0.000           1.000       1.086e-05         -0.0007
 138       7.650e-02      -6.237e-01      -1.683e-06           0.000           0.000           1.000       9.905e-06          0.0007
 139       5.267e-02      -6.237e-01       2.169e-06          -0.000          -0.000           1.000       8.373e-06         -0.0001
 140       3.298e-02      -6.237e-01      -2.586e-07          -0.000          -0.000           1.000       6.355e-06         -0.0002
 141       1.857e-02      -6.237e-01      -7.870e-07           0.000           0.000           1.000       3.967e-06         -0.0002
 142       1.028e-02      -6.237e-01      -4.685e-07           0.000           0.000           1.000       1.348e-06          0.0006
Strip 12
 143       2.392e-01      -6.231e-01       2.914e-09           0.000          -0.000           1.000       2.149e-06          0.0000
 144       2.341e-01      -6.231e-01       5.244e-09          -0.000          -0.000           1.000       6.321e-06         -0.0000
 145       2.227e-01      -6.231e-01      -3.615e-09           0.000           0.000           1.000       1.013e-05          0.0000
 146       2.055e-01      -6.231e-01       2.115e-08          -0.000          -0.000           1.000       1.334e-05         -0.0000
 147       1.835e-01      -6.231e-01       3.530e-08           0.000           0.000           1.000       1.578e-05         -0.0000
 148       1.581e-01      -6.231e-01       3.340e-07           0.000           0.000           1.000       1.731e-05          0.0001
 149       1.307e-01      -6.231e-01       9.626e-07           0.000          -0.000           1.000       1.783e-05          0.0003
 150       1.029e-01      -6.231e-01      -1.295e-08          -0.000          -0.000           1.000       1.731e-05         -0.0007
 151       7.622e-02      -6.231e-01      -1.686e-06           0.000           0.000           1.000       1.578e-05          0.0007
 152       5.236e-02      -6.231e-01       2.173e-06          -0.000          -0.000           1.000       1.334e-05         -0.0001
 153       3.263e-02      -6.231e-01      -2.590e-07          -0.000          -0.000           1.000       1.013e-05         -0.0002
 154       1.820e-02      -6.231e-01      -7.883e-07           0.000           0.000           1.000       6.321e-06         -0.0002
 155       9.895e-03      -6.231e-01      -4.693e-07           0.000           0.000           1.000       2.149e-06          0.0006
Strip 13
 156       2.392e-01      -6.224e-01       2.921e-09           0.000          -0.000           1.000       2.807e-06          0.0000
 157       2.341e-01      -6.224e-01       5.257e-09          -0.000          -0.000           1.000       8.257e-06         -0.0000
 158       2.227e-01      -6.224e-01      -3.624e-09           0.000           0.000           1.000       1.323e-05          0.0000
 159       2.054e-01      -6.224e-01       2.120e-08          -0.000          -0.000           1.000       1.743e-05         -0.0000
 160       1.834e-01      -6.224e-01       3.538e-08           0.000           0.000           1.000       2.062e-05         -0.0000
 161       1.579e-01      -6.224e-01       3.348e-07           0.000           0.000           1.000       2.261e-05          0.0001
 162       1.304e-01      -6.224e-01       9.648e-07           0.000          -0.000           1.000       2.329e-05          0.0003
 163       1.025e-01      -6.224e-01      -1.298e-08          -0.000          -0.000           1.000       2.261e-05         -0.0007
 164       7.584e-02      -6.224e-01      -1.690e-06           0.000           0.000           1.000       2.062e-05          0.0007
 165       5.191e-02      -6.224e-01       2.178e-06          -0.000          -0.000           1.000       1.743e-05         -0.0001
 166       3.214e-02      -6.224e-01      -2.596e-07          -0.000          -0.000           1.000       1.323e-05         -0.0002
 167       1.767e-02      -6.224e-01      -7.902e-07           0.000           0.000           1.000       8.257e-06         -0.0002
 168       9.352e-03      -6.224e-01      -4.704e-07           0.000           0.000           1.000       2.807e-06          0.0006
Strip 14
 169       2.392e-01      -6.215e-01       2.929e-09           0.000          -0.000           1.000       3.278e-06          0.0000
 170       2.341e-01      -6.215e-01       5.272e-09          -0.000          -0.000           1.000       9.643e-06         -0.0000
 171       2.226e-01      -6.215e-01      -3.634e-09           0.000           0.000           1.000       1.545e-05          0.0000
 172       2.053e-01      -6.215e-01       2.126e-08          -0.000          -0.000           1.000       2.036e-05         -0.0000
 173       1.833e-01      -6.215e-01       3.548e-08           0.000           0.000           1.000       2.408e-05         -0.0000
 174       1.577e-01      -6.215e-01       3.358e-07           0.000           0.000           1.000       2.640e-05          0.0001
 175       1.301e-01      -6.215e-01       9.676e-07           0.000          -0.000           1.000       2.719e-05          0.0003
 176       1.021e-01      -6.215e-01      -1.302e-08          -0.000          -0.000           1.000       2.640e-05         -0.0007
 177       7.536e-02      -6.215e-01      -1.695e-06           0.000           0.000           1.000       2.408e-05          0.0007
 178       5.137e-02      -6.215e-01       2.184e-06          -0.000          -0.000           1.000       2.036e-05         -0.0001
 179       3.154e-02      -6.215e-01      -2.604e-07          -0.000          -0.000           1.000       1.545e-05         -0.0002
 180       1.703e-02      -6.215e-01      -7.925e-07           0.000           0.000           1.000       9.643e-06         -0.0002
 181       8.687e-03      -6.215e-01      -4.718e-07           0.000           0.000           1.000       3.278e-06          0.0006
Strip 15
 182       2.391e-01      -6.205e-01       2.938e-09           0.000          -0.000           1.000       3.529e-06          0.0000
 183       2.341e-01      -6.205e-01       5.289e-09          -0.000          -0.000           1.000       1.038e-05         -0.0000
 184       2.225e-01      -6.205e-01      -3.646e-09           0.000           0.000           1.000       1.663e-05          0.0000
 185       2.052e-01      -6.205e-01       2.132e-08          -0.000          -0.000           1.000       2.191e-05         -0.0000
 186       1.831e-01      -6.205e-01       3.560e-08           0.000           0.000           1.000       2.592e-05         -0.0000
 187       1.574e-01      -6.205e-01       3.369e-07           0.000           0.000           1.000       2.843e-05          0.0001
 188       1.298e-01      -6.205e-01       9.707e-07           0.000          -0.000           1.000       2.928e-05          0.0003
 189       1.017e-01      -6.205e-01      -1.306e-08          -0.000          -0.000           1.000       2.843e-05         -0.0007
 190       7.484e-02      -6.205e-01      -1.700e-06           0.000           0.000           1.000       2.592e-05          0.0007
 191       5.076e-02      -6.205e-01       2.191e-06          -0.000          -0.000           1.000       2.191e-05         -0.0001
 192       3.087e-02      -6.205e-01      -2.612e-07          -0.000          -0.000           1.000       1.663e-05         -0.0002
 193       1.632e-02      -6.205e-01      -7.950e-07           0.000           0.000           1.000       1.038e-05         -0.0002
 194       7.945e-03      -6.205e-01      -4.733e-07           0.000           0.000           1.000       3.529e-06          0.0006
Strip 16
 195       2.391e-01      -6.200e-01       2.943e-09           0.000          -0.000           1.000       1.168e-07          0.0000
 196       2.341e-01      -6.200e-01       5.298e-09          -0.000          -0.000           1.000       3.437e-07         -0.0000
 197       2.225e-01      -6.200e-01      -3.652e-09           0.000           0.000           1.000       5.507e-07          0.0000
 198       2.051e-01      -6.200e-01       2.136e-08          -0.000          -0.000           1.000       7.256e-07         -0.0000
 199       1.830e-01      -6.200e-01       3.566e-08           0.000           0.000           1.000       8.583e-07         -0.0000
 200       1.573e-01      -6.200e-01       3.374e-07           0.000           0.000           1.000       9.412e-07          0.0001
 201       1.296e-01      -6.200e-01       9.724e-07           0.000          -0.000           1.000       9.694e-07          0.0003
 202       1.015e-01      -6.200e-01      -1.309e-08          -0.000          -0.000           1.000       9.412e-07         -0.0007
 203       7.456e-02      -6.200e-01      -1.703e-06           0.000           0.000           1.000       8.583e-07          0.0007
 204       5.044e-02      -6.200e-01       2.195e-06          -0.000          -0.000           1.000       7.256e-07         -0.0001
 205       3.052e-02      -6.200e-01      -2.617e-07          -0.000          -0.000           1.000       5.507e-07         -0.0002
 206       1.594e-02      -6.200e-01      -7.963e-07           0.000           0.000           1.000       3.437e-07         -0.0002
 207       7.552e-03      -6.200e-01      -4.741e-07           0.000           0.000           1.000       1.168e-07          0.0006
Strip 17
 208       2.391e-01      -6.199e-01       2.944e-09           0.000           0.000           1.000       3.486e-07          0.0000
 209       2.341e-01      -6.199e-01       5.299e-09          -0.000          -0.000           1.000       1.025e-06         -0.0000
 210       2.225e-01      -6.199e-01      -3.653e-09           0.000           0.000           1.000       1.643e-06          0.0000
 211       2.051e-01      -6.199e-01       2.136e-08          -0.000          -0.000           1.000       2.165e-06         -0.0000
 212       1.830e-01      -6.199e-01       3.566e-08           0.000           0.000           1.000       2.561e-06         -0.0000
 213       1.573e-01      -6.199e-01       3.375e-07           0.000           0.000           1.000       2.808e-06          0.0001
 214       1.296e-01      -6.199e-01       9.725e-07           0.000          -0.000           1.000       2.892e-06          0.0003
 215       1.014e-01      -6.199e-01      -1.309e-08          -0.000          -0.000           1.000       2.808e-06         -0.0008
 216       7.453e-02      -6.199e-01      -1.703e-06           0.000           0.000           1.000       2.561e-06          0.0007
 217       5.042e-02      -6.199e-01       2.195e-06          -0.000          -0.000           1.000       2.165e-06         -0.0001
 218       3.049e-02      -6.199e-01      -2.617e-07          -0.000          -0.000           1.000       1.643e-06         -0.0002
 219       1.591e-02      -6.199e-01      -7.965e-07           0.000           0.000           1.000       1.025e-06         -0.0002
 220       7.519e-03      -6.199e-01      -4.742e-07           0.000           0.000           1.000       3.486e-07          0.0006
Strip 18
 221       2.391e-01      -6.198e-01       2.945e-09           0.000          -0.000           1.000       5.745e-07          0.0000
 222       2.341e-01      -6.198e-01       5.300e-09          -0.000          -0.000           1.000       1.690e-06         -0.0000
 223       2.225e-01      -6.198e-01      -3.654e-09           0.000           0.000           1.000       2.708e-06          0.0000
 224       2.051e-01      -6.198e-01       2.137e-08          -0.000          -0.000           1.000       3.568e-06         -0.0000
 225       1.830e-01      -6.198e-01       3.567e-08           0.000           0.000           1.000       4.220e-06         -0.0000
 226       1.573e-01      -6.198e-01       3.376e-07           0.000           0.000           1.000       4.628e-06          0.0001
 227       1.295e-01      -6.198e-01       9.728e-07           0.000          -0.000           1.000       4.766e-06          0.0003
 228       1.014e-01      -6.198e-01      -1.309e-08          -0.000          -0.000           1.000       4.628e-06         -0.0008
 229       7.449e-02      -6.198e-01      -1.704e-06           0.000           0.000           1.000       4.220e-06          0.0007
 230       5.036e-02      -6.198e-01       2.196e-06          -0.000          -0.000           1.000       3.568e-06         -0.0001
 231       3.043e-02      -6.198e-01      -2.618e-07          -0.000          -0.000           1.000       2.708e-06         -0.0002
 232       1.584e-02      -6.198e-01      -7.967e-07           0.000           0.000           1.000       1.690e-06         -0.0002
 233       7.452e-03      -6.198e-01      -4.743e-07           0.000           0.000           1.000       5.745e-07          0.0006
Strip 19
 234       2.391e-01      -6.196e-01       2.946e-09           0.000          -0.000           1.000       7.908e-07          0.0000
 235       2.341e-01      -6.196e-01       5.302e-09          -0.000          -0.000           1.000       2.327e-06         -0.0000
 236       2.225e-01      -6.196e-01      -3.655e-09           0.000           0.000           1.000       3.727e-06          0.0000
 237       2.051e-01      -6.196e-01       2.138e-08          -0.000          -0.000           1.000       4.911e-06         -0.0000
 238       1.829e-01      -6.196e-01       3.569e-08           0.000           0.000           1.000       5.809e-06         -0.0000
 239       1.572e-01      -6.196e-01       3.377e-07           0.000           0.000           1.000       6.370e-06          0.0001
 240       1.295e-01      -6.196e-01       9.732e-07           0.000          -0.000           1.000       6.561e-06          0.0003
 241       1.013e-01      -6.196e-01      -1.310e-08          -0.000          -0.000           1.000       6.370e-06         -0.0008
 242       7.442e-02      -6.196e-01      -1.704e-06           0.000           0.000           1.000       5.809e-06          0.0007
 243       5.028e-02      -6.196e-01       2.197e-06          -0.000          -0.000           1.000       4.911e-06         -0.0001
 244       3.034e-02      -6.196e-01      -2.619e-07          -0.000          -0.000           1.000       3.727e-06         -0.0002
 245       1.575e-02      -6.196e-01      -7.970e-07           0.000           0.000           1.000       2.327e-06         -0.0002
 246       7.353e-03      -6.196e-01      -4.745e-07           0.000           0.000           1.000       7.908e-07          0.0006
Strip 20
 247       2.391e-01      -6.193e-01       2.948e-09           0.000          -0.000           1.000       9.939e-07          0.0000
 248       2.341e-01      -6.193e-01       5.305e-09          -0.000          -0.000           1.000       2.924e-06         -0.0000
 249       2.225e-01      -6.193e-01      -3.657e-09           0.000           0.000           1.000       4.684e-06          0.0000
 250       2.051e-01      -6.193e-01       2.139e-08          -0.000          -0.000           1.000       6.172e-06         -0.0000
 251       1.829e-01      -6.193e-01       3.571e-08           0.000           0.000           1.000       7.301e-06         -0.0000
 252       1.572e-01      -6.193e-01       3.379e-07           0.000           0.000           1.000       8.006e-06          0.0001
 253       1.294e-01      -6.193e-01       9.737e-07           0.000          -0.000           1.000       8.246e-06          0.0003
 254       1.013e-01      -6.193e-01      -1.310e-08          -0.000          -0.000           1.000       8.006e-06         -0.0008
 255       7.432e-02      -6.193e-01      -1.705e-06           0.000           0.000           1.000       7.301e-06          0.0007
 256       5.018e-02      -6.193e-01       2.198e-06          -0.000          -0.000           1.000       6.172e-06         -0.0001
 257       3.022e-02      -6.193e-01      -2.620e-07          -0.000          -0.000           1.000       4.684e-06         -0.0002
 258       1.562e-02      -6.193e-01      -7.975e-07           0.000           0.000           1.000       2.924e-06         -0.0002
 259       7.224e-03      -6.193e-01      -4.748e-07           0.000           0.000           1.000       9.939e-07          0.0006
Strip 21
 260       2.391e-01      -6.190e-01       2.950e-09           0.000          -0.000           1.000       1.180e-06          0.0000
 261       2.341e-01      -6.190e-01       5.309e-09          -0.000          -0.000           1.000       3.473e-06         -0.0000
 262       2.225e-01      -6.190e-01      -3.660e-09           0.000           0.000           1.000       5.563e-06          0.0000
 263       2.051e-01      -6.190e-01       2.141e-08          -0.000          -0.000           1.000       7.330e-06         -0.0000
 264       1.829e-01      -6.190e-01       3.573e-08           0.000           0.000           1.000       8.671e-06         -0.0000
 265       1.571e-01      -6.190e-01       3.381e-07           0.000           0.000           1.000       9.508e-06          0.0001
 266       1.293e-01      -6.190e-01       9.744e-07           0.000          -0.000           1.000       9.793e-06          0.0003
 267       1.012e-01      -6.190e-01      -1.311e-08          -0.000          -0.000           1.000       9.508e-06         -0.0008
 268       7.421e-02      -6.190e-01      -1.707e-06           0.000           0.000           1.000       8.671e-06          0.0007
 269       5.005e-02      -6.190e-01       2.199e-06          -0.000          -0.000           1.000       7.330e-06         -0.0001
 270       3.008e-02      -6.190e-01      -2.622e-07          -0.000          -0.000           1.000       5.563e-06         -0.0002
 271       1.547e-02      -6.190e-01      -7.980e-07           0.000           0.000           1.000       3.473e-06         -0.0002
 272       7.067e-03      -6.190e-01      -4.751e-07           0.000           0.000           1.000       1.180e-06          0.0006
Strip 22
 273       2.391e-01      -6.186e-01       2.952e-09           0.000          -0.000           1.000       1.347e-06          0.0000
 274       2.341e-01      -6.186e-01       5.313e-09          -0.000          -0.000           1.000       3.963e-06         -0.0000
 275       2.225e-01      -6.186e-01      -3.663e-09           0.000           0.000           1.000       6.348e-06          0.0000
 276       2.050e-01      -6.186e-01       2.142e-08          -0.000          -0.000           1.000       8.365e-06         -0.0000
 277       1.828e-01      -6.186e-01       3.576e-08           0.000           0.000           1.000       9.895e-06         -0.0000
 278       1.570e-01      -6.186e-01       3.384e-07           0.000           0.000           1.000       1.085e-05          0.0001
 279       1.293e-01      -6.186e-01       9.752e-07           0.000          -0.000           1.000       1.118e-05          0.0003
 280       1.011e-01      -6.186e-01      -1.312e-08          -0.000          -0.000           1.000       1.085e-05         -0.0008
 281       7.408e-02      -6.186e-01      -1.708e-06           0.000           0.000           1.000       9.895e-06          0.0007
 282       4.990e-02      -6.186e-01       2.201e-06          -0.000          -0.000           1.000       8.365e-06         -0.0001
 283       2.992e-02      -6.186e-01      -2.624e-07          -0.000          -0.000           1.000       6.348e-06         -0.0002
 284       1.530e-02      -6.186e-01      -7.986e-07           0.000           0.000           1.000       3.963e-06         -0.0002
 285       6.884e-03      -6.186e-01      -4.755e-07           0.000           0.000           1.000       1.347e-06          0.0006
Strip 23
 286       2.391e-01      -6.182e-01       2.954e-09           0.000          -0.000           1.000       1.491e-06          0.0000
 287       2.341e-01      -6.182e-01       5.318e-09          -0.000          -0.000           1.000       4.386e-06         -0.0000
 288       2.225e-01      -6.182e-01      -3.666e-09           0.000           0.000           1.000       7.027e-06          0.0000
 289       2.050e-01      -6.182e-01       2.144e-08          -0.000          -0.000           1.000       9.259e-06         -0.0000
 290       1.828e-01      -6.182e-01       3.579e-08           0.000           0.000           1.000       1.095e-05         -0.0000
 291       1.570e-01      -6.182e-01       3.387e-07           0.000           0.000           1.000       1.201e-05          0.0001
 292       1.292e-01      -6.182e-01       9.760e-07           0.000          -0.000           1.000       1.237e-05          0.0003
 293       1.009e-01      -6.182e-01      -1.313e-08          -0.000          -0.000           1.000       1.201e-05         -0.0008
 294       7.394e-02      -6.182e-01      -1.709e-06           0.000           0.000           1.000       1.095e-05          0.0008
 295       4.973e-02      -6.182e-01       2.203e-06          -0.000          -0.000           1.000       9.259e-06         -0.0001
 296       2.973e-02      -6.182e-01      -2.626e-07          -0.000          -0.000           1.000       7.027e-06         -0.0002
 297       1.510e-02      -6.182e-01      -7.993e-07           0.000           0.000           1.000       4.386e-06         -0.0002
 298       6.679e-03      -6.182e-01      -4.759e-07           0.000           0.000           1.000       1.491e-06          0.0007
Strip 24
 299       2.391e-01      -6.178e-01       2.957e-09           0.000          -0.000           1.000       1.610e-06          0.0000
 300       2.340e-01      -6.178e-01       5.323e-09          -0.000          -0.000           1.000       4.736e-06         -0.0000
 301       2.224e-01      -6.178e-01      -3.669e-09           0.000           0.000           1.000       7.587e-06          0.0000
 302       2.050e-01      -6.178e-01       2.146e-08          -0.000          -0.000           1.000       9.997e-06         -0.0000
 303       1.827e-01      -6.178e-01       3.582e-08           0.000           0.000           1.000       1.183e-05         -0.0000
 304       1.569e-01      -6.178e-01       3.390e-07           0.000           0.000           1.000       1.297e-05          0.0001
 305       1.291e-01      -6.178e-01       9.770e-07           0.000          -0.000           1.000       1.336e-05          0.0003
 306       1.008e-01      -6.178e-01      -1.315e-08          -0.000          -0.000           1.000       1.297e-05         -0.0008
 307       7.378e-02      -6.178e-01      -1.711e-06           0.000           0.000           1.000       1.183e-05          0.0008
 308       4.955e-02      -6.178e-01       2.205e-06          -0.000          -0.000           1.000       9.997e-06         -0.0001
 309       2.953e-02      -6.178e-01      -2.629e-07          -0.000          -0.000           1.000       7.587e-06         -0.0002
 310       1.488e-02      -6.178e-01      -8.001e-07           0.000           0.000           1.000       4.736e-06         -0.0002
 311       6.456e-03      -6.178e-01      -4.763e-07           0.000           0.000           1.000       1.610e-06          0.0007
Strip 25
 312       2.391e-01      -6.173e-01       2.960e-09           0.000          -0.000           1.000       1.701e-06          0.0000
 313       2.340e-01      -6.173e-01       5.328e-09          -0.000          -0.000           1.000       5.005e-06         -0.0000
 314       2.224e-01      -6.173e-01      -3.673e-09           0.000           0.000           1.000       8.019e-06          0.0000
 315       2.049e-01      -6.173e-01       2.148e-08          -0.000          -0.000           1.000       1.057e-05         -0.0000
 316       1.826e-01      -6.173e-01       3.586e-08           0.000           0.000           1.000       1.250e-05         -0.0000
 317       1.568e-01      -6.173e-01       3.394e-07           0.000           0.000           1.000       1.371e-05          0.0001
 318       1.289e-01      -6.173e-01       9.780e-07           0.000          -0.000           1.000       1.412e-05          0.0003
 319       1.007e-01      -6.173e-01      -1.316e-08          -0.000          -0.000           1.000       1.371e-05         -0.0008
 320       7.361e-02      -6.173e-01      -1.713e-06           0.000           0.000           1.000       1.250e-05          0.0008
 321       4.936e-02      -6.173e-01       2.207e-06          -0.000          -0.000           1.000       1.057e-05         -0.0001
 322       2.932e-02      -6.173e-01      -2.632e-07          -0.000          -0.000           1.000       8.019e-06         -0.0002
 323       1.465e-02      -6.173e-01      -8.009e-07           0.000           0.000           1.000       5.005e-06         -0.0002
 324       6.217e-03      -6.173e-01      -4.768e-07           0.000           0.000           1.000       1.701e-06          0.0007
Strip 26
 325       2.391e-01      -6.168e-01       2.963e-09           0.000          -0.000           1.000       1.764e-06          0.0000
 326       2.340e-01      -6.168e-01       5.334e-09          -0.000          -0.000           1.000       5.190e-06         -0.0000
 327       2.224e-01      -6.168e-01      -3.677e-09           0.000           0.000           1.000       8.314e-06          0.0000
 328       2.049e-01      -6.168e-01       2.151e-08          -0.000          -0.000           1.000       1.096e-05         -0.0000
 329       1.826e-01      -6.168e-01       3.590e-08           0.000           0.000           1.000       1.296e-05         -0.0000
 330       1.567e-01      -6.168e-01       3.397e-07           0.000           0.000           1.000       1.421e-05          0.0001
 331       1.288e-01      -6.168e-01       9.790e-07           0.000          -0.000           1.000       1.464e-05          0.0003
 332       1.005e-01      -6.168e-01      -1.317e-08          -0.000          -0.000           1.000       1.421e-05         -0.0008
 333       7.343e-02      -6.168e-01      -1.715e-06           0.000           0.000           1.000       1.296e-05          0.0008
 334       4.915e-02      -6.168e-01       2.210e-06          -0.000          -0.000           1.000       1.096e-05         -0.0001
 335       2.909e-02      -6.168e-01      -2.634e-07          -0.000          -0.000           1.000       8.314e-06         -0.0002
 336       1.441e-02      -6.168e-01      -8.018e-07           0.000           0.000           1.000       5.190e-06         -0.0002
 337       5.968e-03      -6.168e-01      -4.773e-07           0.000           0.000           1.000       1.764e-06          0.0007
Strip 27
 338       2.391e-01      -6.163e-01       2.967e-09           0.000          -0.000           1.000       1.797e-06          0.0000
 339       2.340e-01      -6.163e-01       5.340e-09          -0.000          -0.000           1.000       5.286e-06         -0.0000
 340       2.224e-01      -6.163e-01      -3.681e-09           0.000           0.000           1.000       8.468e-06          0.0000
 341       2.049e-01      -6.163e-01       2.153e-08          -0.000          -0.000           1.000       1.116e-05         -0.0000
 342       1.825e-01      -6.163e-01       3.594e-08           0.000           0.000           1.000       1.320e-05         -0.0000
 343       1.566e-01      -6.163e-01       3.401e-07           0.000           0.000           1.000       1.447e-05          0.0001
 344       1.287e-01      -6.163e-01       9.801e-07           0.000          -0.000           1.000       1.491e-05          0.0003
 345       1.004e-01      -6.163e-01      -1.319e-08          -0.000          -0.000           1.000       1.447e-05         -0.0008
 346       7.325e-02      -6.163e-01      -1.717e-06           0.000           0.000           1.000       1.320e-05          0.0008
 347       4.894e-02      -6.163e-01       2.212e-06          -0.000          -0.000           1.000       1.116e-05         -0.0001
 348       2.886e-02      -6.163e-01      -2.637e-07          -0.000          -0.000           1.000       8.468e-06         -0.0002
 349       1.417e-02      -6.163e-01      -8.026e-07           0.000           0.000           1.000       5.286e-06         -0.0002
 350       5.712e-03      -6.163e-01      -4.778e-07           0.000           0.000           1.000       1.797e-06          0.0007
Strip 28
 351       2.391e-01      -6.160e-01       2.968e-09           0.000           0.000           1.000       1.178e-07          0.0000
 352       2.340e-01      -6.160e-01       5.343e-09          -0.000          -0.000           1.000       3.467e-07         -0.0000
 353       2.224e-01      -6.160e-01      -3.683e-09           0.000           0.000           1.000       5.553e-07          0.0000
 354       2.049e-01      -6.160e-01       2.154e-08          -0.000          -0.000           1.000       7.317e-07         -0.0000
 355       1.825e-01      -6.160e-01       3.596e-08           0.000           0.000           1.000       8.656e-07         -0.0000
 356       1.566e-01      -6.160e-01       3.403e-07           0.000           0.000           1.000       9.492e-07          0.0001
 357       1.286e-01      -6.160e-01       9.806e-07           0.000          -0.000           1.000       9.776e-07          0.0003
 358       1.003e-01      -6.160e-01      -1.320e-08          -0.000          -0.000           1.000       9.492e-07         -0.0008
 359       7.315e-02      -6.160e-01      -1.717e-06           0.000           0.000           1.000       8.656e-07          0.0008
 360       4.884e-02      -6.160e-01       2.213e-06          -0.000          -0.000           1.000       7.317e-07         -0.0001
 361       2.874e-02      -6.160e-01      -2.639e-07          -0.000          -0.000           1.000       5.553e-07         -0.0002
 362       1.404e-02      -6.160e-01      -8.031e-07           0.000           0.000           1.000       3.467e-07         -0.0002
 363       5.578e-03      -6.160e-01      -4.781e-07           0.000           0.000           1.000       1.178e-07          0.0007
Strip 29
 364       2.391e-01      -6.159e-01       2.969e-09           0.000          -0.000           1.000       3.515e-07          0.0000
 365       2.340e-01      -6.159e-01       5.343e-09          -0.000          -0.000           1.000       1.034e-06         -0.0000
 366       2.224e-01      -6.159e-01      -3.683e-09           0.000           0.000           1.000       1.657e-06          0.0000
 367       2.048e-01      -6.159e-01       2.154e-08          -0.000          -0.000           1.000       2.183e-06         -0.0000
 368       1.825e-01      -6.159e-01       3.596e-08           0.000           0.000           1.000       2.582e-06         -0.0000
 369       1.566e-01      -6.159e-01       3.403e-07           0.000           0.000           1.000       2.832e-06          0.0001
 370       1.286e-01      -6.159e-01       9.807e-07           0.000          -0.000           1.000       2.916e-06          0.0003
 371       1.003e-01      -6.159e-01      -1.320e-08          -0.000          -0.000           1.000       2.832e-06         -0.0008
 372       7.314e-02      -6.159e-01      -1.718e-06           0.000           0.000           1.000       2.582e-06          0.0008
 373       4.882e-02      -6.159e-01       2.214e-06          -0.000          -0.000           1.000       2.183e-06         -0.0001
 374       2.873e-02      -6.159e-01      -2.639e-07          -0.000          -0.000           1.000       1.657e-06         -0.0002
 375       1.402e-02      -6.159e-01      -8.032e-07           0.000           0.000           1.000       1.034e-06         -0.0002
 376       5.561e-03      -6.159e-01      -4.781e-07           0.000           0.000           1.000       3.515e-07          0.0007
Strip 30
 377       2.391e-01      -6.158e-01       2.969e-09           0.000          -0.000           1.000       5.793e-07          0.0000
 378       2.340e-01      -6.158e-01       5.344e-09          -0.000          -0.000           1.000       1.704e-06         -0.0000
 379       2.224e-01      -6.158e-01      -3.684e-09           0.000           0.000           1.000       2.730e-06          0.0000
 380       2.048e-01      -6.158e-01       2.155e-08          -0.000          -0.000           1.000       3.597e-06         -0.0000
 381       1.825e-01      -6.158e-01       3.597e-08           0.000           0.000           1.000       4.255e-06         -0.0000
 382       1.566e-01      -6.158e-01       3.404e-07           0.000           0.000           1.000       4.666e-06          0.0001
 383       1.286e-01      -6.158e-01       9.808e-07           0.000          -0.000           1.000       4.806e-06          0.0003
 384       1.002e-01      -6.158e-01      -1.320e-08          -0.000          -0.000           1.000       4.666e-06         -0.0008
 385       7.312e-02      -6.158e-01      -1.718e-06           0.000           0.000           1.000       4.255e-06          0.0008
 386       4.879e-02      -6.158e-01       2.214e-06          -0.000          -0.000           1.000       3.597e-06         -0.0001
 387       2.870e-02      -6.158e-01      -2.639e-07          -0.000          -0.000           1.000       2.730e-06         -0.0002
 388       1.399e-02      -6.158e-01      -8.033e-07           0.000           0.000           1.000       1.704e-06         -0.0002
 389       5.528e-03      -6.158e-01      -4.782e-07           0.000           0.000           1.000       5.793e-07          0.0007
Strip 31
 390       2.391e-01      -6.156e-01       2.970e-09           0.000          -0.000           1.000       7.972e-07          0.0000
 391       2.340e-01      -6.156e-01       5.345e-09          -0.000          -0.000           1.000       2.345e-06         -0.0000
 392       2.224e-01      -6.156e-01      -3.685e-09           0.000           0.000           1.000       3.757e-06          0.0000
 393       2.048e-01      -6.156e-01       2.155e-08          -0.000          -0.000           1.000       4.951e-06         -0.0000
 394       1.825e-01      -6.156e-01       3.597e-08           0.000           0.000           1.000       5.856e-06         -0.0000
 395       1.565e-01      -6.156e-01       3.405e-07           0.000           0.000           1.000       6.422e-06          0.0001
 396       1.286e-01      -6.156e-01       9.810e-07           0.000          -0.000           1.000       6.614e-06          0.0003
 397       1.002e-01      -6.156e-01      -1.320e-08          -0.000          -0.000           1.000       6.422e-06         -0.0008
 398       7.308e-02      -6.156e-01      -1.718e-06           0.000           0.000           1.000       5.856e-06          0.0008
 399       4.875e-02      -6.156e-01       2.214e-06          -0.000          -0.000           1.000       4.951e-06         -0.0001
 400       2.865e-02      -6.156e-01      -2.640e-07          -0.000          -0.000           1.000       3.757e-06         -0.0002
 401       1.394e-02      -6.156e-01      -8.034e-07           0.000           0.000           1.000       2.345e-06         -0.0002
 402       5.479e-03      -6.156e-01      -4.783e-07           0.000           0.000           1.000       7.972e-07          0.0007
Strip 32
 403       2.391e-01      -6.153e-01       2.970e-09           0.000          -0.000           1.000       1.002e-06          0.0000
 404       2.340e-01      -6.153e-01       5.346e-09          -0.000          -0.000           1.000       2.947e-06         -0.0000
 405       2.224e-01      -6.153e-01      -3.686e-09           0.000           0.000           1.000       4.721e-06          0.0000
 406       2.048e-01      -6.153e-01       2.156e-08          -0.000          -0.000           1.000       6.220e-06         -0.0000
 407       1.825e-01      -6.153e-01       3.598e-08           0.000           0.000           1.000       7.358e-06         -0.0000
 408       1.565e-01      -6.153e-01       3.405e-07           0.000           0.000           1.000       8.069e-06          0.0001
 409       1.286e-01      -6.153e-01       9.813e-07           0.000          -0.000           1.000       8.310e-06          0.0003
 410       1.002e-01      -6.153e-01      -1.321e-08          -0.000          -0.000           1.000       8.069e-06         -0.0008
 411       7.304e-02      -6.153e-01      -1.719e-06           0.000           0.000           1.000       7.358e-06          0.0008
 412       4.870e-02      -6.153e-01       2.215e-06          -0.000          -0.000           1.000       6.220e-06         -0.0001
 413       2.859e-02      -6.153e-01      -2.641e-07          -0.000          -0.000           1.000       4.721e-06         -0.0002
 414       1.388e-02      -6.153e-01      -8.037e-07           0.000           0.000           1.000       2.947e-06         -0.0002
 415       5.414e-03      -6.153e-01      -4.784e-07           0.000           0.000           1.000       1.002e-06          0.0007
Strip 33
 416       2.391e-01      -6.150e-01       2.971e-09           0.000           0.000           1.000       1.189e-06          0.0000
 417       2.340e-01      -6.150e-01       5.348e-09          -0.000          -0.000           1.000       3.498e-06         -0.0000
 418       2.224e-01      -6.150e-01      -3.687e-09           0.000           0.000           1.000       5.604e-06          0.0000
 419       2.048e-01      -6.150e-01       2.156e-08          -0.000          -0.000           1.000       7.385e-06         -0.0000
 420       1.824e-01      -6.150e-01       3.600e-08           0.000           0.000           1.000       8.736e-06         -0.0000
 421       1.565e-01      -6.150e-01       3.407e-07           0.000           0.000           1.000       9.579e-06          0.0001
 422       1.285e-01      -6.150e-01       9.816e-07           0.000          -0.000           1.000       9.866e-06          0.0003
 423       1.001e-01      -6.150e-01      -1.321e-08          -0.000          -0.000           1.000       9.579e-06         -0.0008
 424       7.298e-02      -6.150e-01      -1.719e-06           0.000           0.000           1.000       8.736e-06          0.0008
 425       4.864e-02      -6.150e-01       2.216e-06          -0.000          -0.000           1.000       7.385e-06         -0.0001
 426       2.852e-02      -6.150e-01      -2.642e-07          -0.000          -0.000           1.000       5.604e-06         -0.0002
 427       1.380e-02      -6.150e-01      -8.039e-07           0.000           0.000           1.000       3.498e-06         -0.0002
 428       5.335e-03      -6.150e-01      -4.786e-07           0.000           0.000           1.000       1.189e-06          0.0007
Strip 34
 429       2.391e-01      -6.146e-01       2.973e-09           0.000          -0.000           1.000       1.357e-06          0.0000
 430       2.340e-01      -6.146e-01       5.350e-09          -0.000          -0.000           1.000       3.991e-06         -0.0000
 431       2.223e-01      -6.146e-01      -3.688e-09           0.000           0.000           1.000       6.393e-06          0.0000
 432       2.048e-01      -6.146e-01       2.157e-08          -0.000          -0.000           1.000       8.424e-06         -0.0000
 433       1.824e-01      -6.146e-01       3.601e-08           0.000           0.000           1.000       9.965e-06         -0.0000
 434       1.565e-01      -6.146e-01       3.408e-07           0.000           0.000           1.000       1.093e-05          0.0001
 435       1.285e-01      -6.146e-01       9.820e-07           0.000          -0.000           1.000       1.125e-05          0.0003
 436       1.001e-01      -6.146e-01      -1.322e-08          -0.000          -0.000           1.000       1.093e-05         -0.0008
 437       7.291e-02      -6.146e-01      -1.720e-06           0.000           0.000           1.000       9.965e-06          0.0008
 438       4.856e-02      -6.146e-01       2.217e-06          -0.000          -0.000           1.000       8.424e-06         -0.0001
 439       2.844e-02      -6.146e-01      -2.643e-07          -0.000          -0.000           1.000       6.393e-06         -0.0002
 440       1.371e-02      -6.146e-01      -8.043e-07           0.000           0.000           1.000       3.991e-06         -0.0002
 441       5.244e-03      -6.146e-01      -4.788e-07           0.000           0.000           1.000       1.357e-06          0.0007
Strip 35
 442       2.391e-01      -6.142e-01       2.974e-09           0.000          -0.000           1.000       1.501e-06          0.0000
 443       2.340e-01      -6.142e-01       5.353e-09          -0.000          -0.000           1.000       4.415e-06         -0.0000
 444       2.223e-01      -6.142e-01      -3.690e-09           0.000           0.000           1.000       7.073e-06          0.0000
 445       2.048e-01      -6.142e-01       2.158e-08          -0.000          -0.000           1.000       9.320e-06         -0.0000
 446       1.824e-01      -6.142e-01       3.603e-08           0.000           0.000           1.000       1.103e-05         -0.0000
 447       1.564e-01      -6.142e-01       3.409e-07           0.000           0.000           1.000       1.209e-05          0.0001
 448       1.284e-01      -6.142e-01       9.825e-07           0.000          -0.000           1.000       1.245e-05          0.0003
 449       1.000e-01      -6.142e-01      -1.322e-08          -0.000          -0.000           1.000       1.209e-05         -0.0008
 450       7.284e-02      -6.142e-01      -1.721e-06           0.000           0.000           1.000       1.103e-05          0.0008
 451       4.848e-02      -6.142e-01       2.218e-06          -0.000          -0.000           1.000       9.320e-06         -0.0001
 452       2.835e-02      -6.142e-01      -2.644e-07          -0.000          -0.000           1.000       7.073e-06         -0.0002
 453       1.362e-02      -6.142e-01      -8.046e-07           0.000           0.000           1.000       4.415e-06         -0.0002
 454       5.142e-03      -6.142e-01      -4.790e-07           0.000           0.000           1.000       1.501e-06          0.0007
Strip 36
 455       2.391e-01      -6.138e-01       2.975e-09           0.000          -0.000           1.000       1.620e-06          0.0000
 456       2.340e-01      -6.138e-01       5.355e-09          -0.000          -0.000           1.000       4.765e-06         -0.0000
 457       2.223e-01      -6.138e-01      -3.692e-09           0.000           0.000           1.000       7.633e-06          0.0000
 458       2.048e-01      -6.138e-01       2.159e-08          -0.000          -0.000           1.000       1.006e-05         -0.0000
 459       1.824e-01      -6.138e-01       3.604e-08           0.000           0.000           1.000       1.190e-05         -0.0000
 460       1.564e-01      -6.138e-01       3.411e-07           0.000           0.000           1.000       1.305e-05          0.0001
 461       1.284e-01      -6.138e-01       9.829e-07           0.000          -0.000           1.000       1.344e-05          0.0003
 462       9.995e-02      -6.138e-01      -1.323e-08          -0.000          -0.000           1.000       1.305e-05         -0.0008
 463       7.276e-02      -6.138e-01      -1.722e-06           0.000           0.000           1.000       1.190e-05          0.0008
 464       4.839e-02      -6.138e-01       2.219e-06          -0.000          -0.000           1.000       1.006e-05         -0.0001
 465       2.825e-02      -6.138e-01      -2.645e-07          -0.000          -0.000           1.000       7.633e-06         -0.0002
 466       1.351e-02      -6.138e-01      -8.050e-07           0.000           0.000           1.000       4.765e-06         -0.0002
 467       5.030e-03      -6.138e-01      -4.792e-07           0.000           0.000           1.000       1.620e-06          0.0007
Strip 37
 468       2.391e-01      -6.133e-01       2.977e-09           0.000          -0.000           1.000       1.711e-06          0.0000
 469       2.340e-01      -6.133e-01       5.358e-09          -0.000          -0.000           1.000       5.033e-06         -0.0000
 470       2.223e-01      -6.133e-01      -3.694e-09           0.000           0.000           1.000       8.063e-06          0.0000
 471       2.048e-01      -6.133e-01       2.160e-08          -0.000          -0.000           1.000       1.062e-05         -0.0000
 472       1.823e-01      -6.133e-01       3.606e-08           0.000           0.000           1.000       1.257e-05         -0.0000
 473       1.563e-01      -6.133e-01       3.413e-07           0.000           0.000           1.000       1.378e-05          0.0001
 474       1.283e-01      -6.133e-01       9.834e-07           0.000          -0.000           1.000       1.419e-05          0.0003
 475       9.988e-02      -6.133e-01      -1.323e-08          -0.000          -0.000           1.000       1.378e-05         -0.0008
 476       7.268e-02      -6.133e-01      -1.722e-06           0.000           0.000           1.000       1.257e-05          0.0008
 477       4.829e-02      -6.133e-01       2.220e-06          -0.000          -0.000           1.000       1.062e-05         -0.0001
 478       2.814e-02      -6.133e-01      -2.646e-07          -0.000          -0.000           1.000       8.063e-06         -0.0002
 479       1.339e-02      -6.133e-01      -8.054e-07           0.000           0.000           1.000       5.033e-06         -0.0002
 480       4.911e-03      -6.133e-01      -4.795e-07           0.000           0.000           1.000       1.711e-06          0.0007
Strip 38
 481       2.391e-01      -6.128e-01       2.978e-09           0.000          -0.000           1.000       1.773e-06          0.0000
 482       2.340e-01      -6.128e-01       5.361e-09          -0.000          -0.000           1.000       5.216e-06         -0.0000
[...]
1281       1.029e-01       6.231e-01      -1.295e-08          -0.000           0.000           1.000       1.731e-05         -0.0007
1282       7.622e-02       6.231e-01      -1.686e-06           0.000          -0.000           1.000       1.578e-05          0.0007
1283       5.236e-02       6.231e-01       2.173e-06          -0.000           0.000           1.000       1.334e-05         -0.0001
1284       3.263e-02       6.231e-01      -2.590e-07          -0.000           0.000           1.000       1.013e-05         -0.0002
1285       1.820e-02       6.231e-01      -7.883e-07           0.000          -0.000           1.000       6.321e-06         -0.0002
1286       9.895e-03       6.231e-01      -4.693e-07           0.000          -0.000           1.000       2.149e-06          0.0006
Strip 100
1287       2.392e-01       6.237e-01       2.909e-09           0.000          -0.000           1.000       1.348e-06          0.0000
1288       2.341e-01       6.237e-01       5.236e-09          -0.000           0.000           1.000       3.967e-06         -0.0000
1289       2.227e-01       6.237e-01      -3.609e-09           0.000          -0.000           1.000       6.355e-06          0.0000
1290       2.056e-01       6.237e-01       2.111e-08          -0.000           0.000           1.000       8.373e-06         -0.0000
1291       1.836e-01       6.237e-01       3.524e-08           0.000          -0.000           1.000       9.905e-06         -0.0000
1292       1.583e-01       6.237e-01       3.335e-07           0.000          -0.000           1.000       1.086e-05          0.0001
1293       1.309e-01       6.237e-01       9.610e-07           0.000           0.000           1.000       1.119e-05          0.0003
1294       1.031e-01       6.237e-01      -1.293e-08          -0.000           0.000           1.000       1.086e-05         -0.0007
1295       7.650e-02       6.237e-01      -1.683e-06           0.000          -0.000           1.000       9.905e-06          0.0007
1296       5.267e-02       6.237e-01       2.169e-06          -0.000           0.000           1.000       8.373e-06         -0.0001
1297       3.298e-02       6.237e-01      -2.586e-07          -0.000           0.000           1.000       6.355e-06         -0.0002
1298       1.857e-02       6.237e-01      -7.870e-07           0.000          -0.000           1.000       3.967e-06         -0.0002
1299       1.028e-02       6.237e-01      -4.685e-07           0.000          -0.000           1.000       1.348e-06          0.0006
Strip 101
1300       2.392e-01       6.239e-01       2.906e-09           0.000           0.000           1.000       4.595e-07          0.0000
1301       2.341e-01       6.239e-01       5.231e-09          -0.000           0.000           1.000       1.352e-06         -0.0000
1302       2.227e-01       6.239e-01      -3.606e-09           0.000          -0.000           1.000       2.166e-06          0.0000
1303       2.056e-01       6.239e-01       2.109e-08          -0.000           0.000           1.000       2.854e-06         -0.0000
1304       1.837e-01       6.239e-01       3.521e-08           0.000          -0.000           1.000       3.376e-06         -0.0000
1305       1.583e-01       6.239e-01       3.332e-07           0.000          -0.000           1.000       3.702e-06          0.0001
1306       1.310e-01       6.239e-01       9.601e-07           0.000           0.000           1.000       3.812e-06          0.0003
1307       1.032e-01       6.239e-01      -1.292e-08          -0.000           0.000           1.000       3.702e-06         -0.0007
1308       7.664e-02       6.239e-01      -1.682e-06           0.000          -0.000           1.000       3.376e-06          0.0007
1309       5.283e-02       6.239e-01       2.167e-06          -0.000           0.000           1.000       2.854e-06         -0.0001
1310       3.316e-02       6.239e-01      -2.584e-07          -0.000           0.000           1.000       2.166e-06         -0.0002
1311       1.876e-02       6.239e-01      -7.863e-07           0.000          -0.000           1.000       1.352e-06         -0.0002
1312       1.048e-02       6.239e-01      -4.681e-07           0.000          -0.000           1.000       4.595e-07          0.0006
Strip 102
1313       2.392e-01       6.250e-01       2.896e-09           0.000           0.000           1.000       6.720e-06          0.0000
1314       2.342e-01       6.250e-01       5.213e-09          -0.000           0.000           1.000       1.977e-05         -0.0000
1315       2.228e-01       6.250e-01      -3.594e-09           0.000          -0.000           1.000       3.167e-05          0.0000
1316       2.057e-01       6.250e-01       2.102e-08          -0.000           0.000           1.000       4.173e-05         -0.0000
1317       1.839e-01       6.250e-01       3.509e-08           0.000          -0.000           1.000       4.936e-05         -0.0000
1318       1.586e-01       6.250e-01       3.320e-07           0.000          -0.000           1.000       5.413e-05          0.0001
1319       1.313e-01       6.250e-01       9.568e-07           0.000           0.000           1.000       5.575e-05          0.0003
1320       1.037e-01       6.250e-01      -1.288e-08          -0.000           0.000           1.000       5.413e-05         -0.0007
1321       7.720e-02       6.250e-01      -1.676e-06           0.000          -0.000           1.000       4.936e-05          0.0007
1322       5.348e-02       6.250e-01       2.160e-06          -0.000           0.000           1.000       4.173e-05         -0.0001
1323       3.387e-02       6.250e-01      -2.575e-07          -0.000           0.000           1.000       3.167e-05         -0.0002
1324       1.952e-02       6.250e-01      -7.836e-07           0.000          -0.000           1.000       1.977e-05         -0.0002
1325       1.127e-02       6.250e-01      -4.665e-07           0.000          -0.000           1.000       6.720e-06          0.0006
Strip 103
1326       2.392e-01       6.267e-01       2.880e-09           0.000           0.000           1.000       4.892e-06          0.0000
1327       2.342e-01       6.267e-01       5.184e-09          -0.000           0.000           1.000       1.439e-05         -0.0000
1328       2.229e-01       6.267e-01      -3.574e-09           0.000          -0.000           1.000       2.305e-05          0.0000
1329       2.059e-01       6.267e-01       2.090e-08          -0.000           0.000           1.000       3.038e-05         -0.0000
1330       1.842e-01       6.267e-01       3.489e-08           0.000          -0.000           1.000       3.593e-05         -0.0000
1331       1.591e-01       6.267e-01       3.302e-07           0.000          -0.000           1.000       3.940e-05          0.0001
1332       1.320e-01       6.267e-01       9.514e-07           0.000           0.000           1.000       4.058e-05          0.0003
1333       1.044e-01       6.267e-01      -1.280e-08          -0.000           0.000           1.000       3.940e-05         -0.0007
1334       7.812e-02       6.267e-01      -1.666e-06           0.000          -0.000           1.000       3.593e-05          0.0006
1335       5.452e-02       6.267e-01       2.148e-06          -0.000           0.000           1.000       3.038e-05         -0.0001
1336       3.503e-02       6.267e-01      -2.560e-07          -0.000           0.000           1.000       2.305e-05         -0.0002
1337       2.076e-02       6.267e-01      -7.792e-07           0.000          -0.000           1.000       1.439e-05         -0.0002
1338       1.255e-02       6.267e-01      -4.639e-07           0.000          -0.000           1.000       4.892e-06          0.0006
Strip 104
1339       2.392e-01       6.277e-01       2.871e-09           0.000           0.000           1.000       1.785e-06          0.0000
1340       2.342e-01       6.277e-01       5.167e-09          -0.000           0.000           1.000       5.250e-06         -0.0000
1341       2.229e-01       6.277e-01      -3.562e-09           0.000          -0.000           1.000       8.410e-06          0.0000
1342       2.060e-01       6.277e-01       2.083e-08          -0.000           0.000           1.000       1.108e-05         -0.0000
1343       1.844e-01       6.277e-01       3.477e-08           0.000          -0.000           1.000       1.311e-05         -0.0000
1344       1.593e-01       6.277e-01       3.291e-07           0.000          -0.000           1.000       1.438e-05          0.0001
1345       1.323e-01       6.277e-01       9.483e-07           0.000           0.000           1.000       1.481e-05          0.0002
1346       1.049e-01       6.277e-01      -1.276e-08          -0.000           0.000           1.000       1.438e-05         -0.0007
1347       7.865e-02       6.277e-01      -1.661e-06           0.000          -0.000           1.000       1.311e-05          0.0006
1348       5.513e-02       6.277e-01       2.141e-06          -0.000           0.000           1.000       1.108e-05         -0.0001
1349       3.570e-02       6.277e-01      -2.552e-07          -0.000           0.000           1.000       8.410e-06         -0.0002
1350       2.148e-02       6.277e-01      -7.767e-07           0.000          -0.000           1.000       5.250e-06         -0.0002
1351       1.330e-02       6.277e-01      -4.624e-07           0.000          -0.000           1.000       1.785e-06          0.0005
Strip 105
1352       2.392e-01       6.294e-01       2.846e-09           0.000           0.000           1.000       9.338e-06          0.0000
1353       2.343e-01       6.294e-01       5.122e-09          -0.000           0.000           1.000       2.747e-05         -0.0000
1354       2.231e-01       6.294e-01      -3.531e-09           0.000          -0.000           1.000       4.401e-05          0.0000
1355       2.063e-01       6.294e-01       2.065e-08          -0.000           0.000           1.000       5.799e-05         -0.0000
1356       1.849e-01       6.294e-01       3.448e-08           0.000          -0.000           1.000       6.860e-05         -0.0000
1357       1.600e-01       6.294e-01       3.263e-07           0.000          -0.000           1.000       7.522e-05          0.0001
1358       1.332e-01       6.294e-01       9.402e-07           0.000           0.000           1.000       7.747e-05          0.0002
1359       1.060e-01       6.294e-01      -1.265e-08          -0.000           0.000           1.000       7.522e-05         -0.0006
1360       8.003e-02       6.294e-01      -1.647e-06           0.000          -0.000           1.000       6.860e-05          0.0006
1361       5.672e-02       6.294e-01       2.122e-06          -0.000           0.000           1.000       5.799e-05         -0.0001
1362       3.745e-02       6.294e-01      -2.530e-07          -0.000           0.000           1.000       4.401e-05         -0.0002
1363       2.335e-02       6.294e-01      -7.700e-07           0.000          -0.000           1.000       2.747e-05         -0.0002
1364       1.524e-02       6.294e-01      -4.584e-07           0.000          -0.000           1.000       9.338e-06          0.0005
Strip 106
1365       2.392e-01       6.314e-01       2.815e-09           0.000           0.000           1.000       3.825e-06          0.0000
1366       2.343e-01       6.314e-01       5.066e-09          -0.000           0.000           1.000       1.125e-05         -0.0000
1367       2.233e-01       6.314e-01      -3.492e-09           0.000          -0.000           1.000       1.803e-05          0.0000
1368       2.067e-01       6.314e-01       2.043e-08          -0.000           0.000           1.000       2.375e-05         -0.0000
1369       1.855e-01       6.314e-01       3.410e-08           0.000          -0.000           1.000       2.810e-05         -0.0000
1370       1.609e-01       6.314e-01       3.227e-07           0.000          -0.000           1.000       3.081e-05          0.0001
1371       1.344e-01       6.314e-01       9.299e-07           0.000           0.000           1.000       3.174e-05          0.0002
1372       1.075e-01       6.314e-01      -1.251e-08          -0.000           0.000           1.000       3.081e-05         -0.0006
1373       8.179e-02       6.314e-01      -1.629e-06           0.000          -0.000           1.000       2.810e-05          0.0005
1374       5.873e-02       6.314e-01       2.099e-06          -0.000           0.000           1.000       2.375e-05         -0.0001
1375       3.968e-02       6.314e-01      -2.502e-07          -0.000           0.000           1.000       1.803e-05         -0.0002
1376       2.574e-02       6.314e-01      -7.615e-07           0.000          -0.000           1.000       1.125e-05         -0.0002
1377       1.772e-02       6.314e-01      -4.534e-07           0.000          -0.000           1.000       3.825e-06          0.0004
Strip 107
1378       2.392e-01       6.334e-01       2.775e-09           0.000           0.000           1.000       9.103e-06          0.0000
1379       2.344e-01       6.334e-01       4.994e-09          -0.000           0.000           1.000       2.678e-05         -0.0000
1380       2.235e-01       6.334e-01      -3.443e-09           0.000          -0.000           1.000       4.290e-05          0.0000
1381       2.071e-01       6.334e-01       2.014e-08          -0.000           0.000           1.000       5.653e-05         -0.0000
1382       1.862e-01       6.334e-01       3.361e-08           0.000          -0.000           1.000       6.687e-05         -0.0000
1383       1.620e-01       6.334e-01       3.181e-07           0.000          -0.000           1.000       7.333e-05          0.0001
1384       1.359e-01       6.334e-01       9.166e-07           0.000           0.000           1.000       7.552e-05          0.0002
1385       1.094e-01       6.334e-01      -1.233e-08          -0.000           0.000           1.000       7.333e-05         -0.0005
1386       8.405e-02       6.334e-01      -1.605e-06           0.000          -0.000           1.000       6.687e-05          0.0005
1387       6.132e-02       6.334e-01       2.069e-06          -0.000           0.000           1.000       5.653e-05         -0.0001
1388       4.254e-02       6.334e-01      -2.466e-07          -0.000           0.000           1.000       4.290e-05         -0.0001
1389       2.879e-02       6.334e-01      -7.507e-07           0.000          -0.000           1.000       2.678e-05         -0.0001
1390       2.089e-02       6.334e-01      -4.469e-07           0.000          -0.000           1.000       9.103e-06          0.0004
Strip 108
1391       2.392e-01       6.354e-01       2.731e-09           0.000           0.000           1.000       3.711e-06          0.0000
1392       2.345e-01       6.354e-01       4.915e-09          -0.000           0.000           1.000       1.092e-05         -0.0000
1393       2.238e-01       6.354e-01      -3.388e-09           0.000          -0.000           1.000       1.749e-05          0.0000
1394       2.077e-01       6.354e-01       1.982e-08          -0.000           0.000           1.000       2.305e-05         -0.0000
1395       1.871e-01       6.354e-01       3.308e-08           0.000          -0.000           1.000       2.726e-05         -0.0000
1396       1.633e-01       6.354e-01       3.131e-07           0.000          -0.000           1.000       2.989e-05          0.0001
1397       1.376e-01       6.354e-01       9.021e-07           0.000           0.000           1.000       3.079e-05          0.0002
1398       1.115e-01       6.354e-01      -1.214e-08          -0.000           0.000           1.000       2.989e-05         -0.0005
1399       8.651e-02       6.354e-01      -1.580e-06           0.000          -0.000           1.000       2.726e-05          0.0004
1400       6.414e-02       6.354e-01       2.036e-06          -0.000           0.000           1.000       2.305e-05         -0.0000
1401       4.566e-02       6.354e-01      -2.427e-07          -0.000           0.000           1.000       1.749e-05         -0.0001
1402       3.213e-02       6.354e-01      -7.388e-07           0.000          -0.000           1.000       1.092e-05         -0.0001
1403       2.435e-02       6.354e-01      -4.398e-07           0.000          -0.000           1.000       3.711e-06          0.0003
Strip 109
1404       2.392e-01       6.374e-01       2.643e-09           0.000           0.000           1.000       8.671e-06          0.0000
1405       2.347e-01       6.374e-01       4.756e-09          -0.000           0.000           1.000       2.551e-05         -0.0000
1406       2.243e-01       6.374e-01      -3.279e-09           0.000          -0.000           1.000       4.086e-05          0.0000
1407       2.087e-01       6.374e-01       1.918e-08          -0.000           0.000           1.000       5.384e-05         -0.0000
1408       1.888e-01       6.374e-01       3.201e-08           0.000          -0.000           1.000       6.369e-05         -0.0000
1409       1.657e-01       6.374e-01       3.030e-07           0.000          -0.000           1.000       6.984e-05          0.0000
1410       1.409e-01       6.374e-01       8.730e-07           0.000           0.000           1.000       7.193e-05          0.0002
1411       1.156e-01       6.374e-01      -1.175e-08          -0.000           0.000           1.000       6.984e-05         -0.0004
1412       9.147e-02       6.374e-01      -1.529e-06           0.000          -0.001           1.000       6.369e-05          0.0003
1413       6.982e-02       6.374e-01       1.971e-06          -0.000           0.001           1.000       5.384e-05          0.0000
1414       5.193e-02       6.374e-01      -2.349e-07          -0.000           0.000           1.000       4.086e-05         -0.0001
1415       3.884e-02       6.374e-01      -7.150e-07           0.000          -0.000           1.000       2.551e-05         -0.0001
1416       3.131e-02       6.374e-01      -4.256e-07           0.000          -0.001           1.000       8.671e-06          0.0001
Strip 110
1417       2.393e-01       6.394e-01       2.536e-09           0.000           0.000           1.000       3.447e-06          0.0000
1418       2.349e-01       6.394e-01       4.565e-09          -0.000           0.000           1.000       1.014e-05         -0.0000
1419       2.249e-01       6.394e-01      -3.147e-09           0.000          -0.000           1.000       1.624e-05          0.0000
1420       2.100e-01       6.394e-01       1.841e-08          -0.000           0.000           1.000       2.140e-05         -0.0000
1421       1.909e-01       6.394e-01       3.072e-08           0.000          -0.000           1.000       2.532e-05         -0.0000
1422       1.687e-01       6.394e-01       2.907e-07           0.000          -0.000           1.000       2.776e-05          0.0000
1423       1.449e-01       6.394e-01       8.378e-07           0.000           0.000           1.000       2.860e-05          0.0001
1424       1.206e-01       6.394e-01      -1.127e-08          -0.000           0.000           1.000       2.776e-05         -0.0002
1425       9.745e-02       6.394e-01      -1.467e-06           0.000          -0.001           1.000       2.532e-05          0.0002
1426       7.667e-02       6.394e-01       1.891e-06          -0.000           0.001           1.000       2.140e-05          0.0000
1427       5.951e-02       6.394e-01      -2.255e-07          -0.000           0.000           1.000       1.624e-05         -0.0000
1428       4.694e-02       6.394e-01      -6.862e-07           0.000          -0.000           1.000       1.014e-05         -0.0001
1429       3.972e-02       6.394e-01      -4.085e-07           0.000          -0.001           1.000       3.447e-06          0.0001










