xflr5 v6.50

Plane Name
T1-44.0 m/s-VLM1
QInf  =   44.000000 m/s
Alpha =    6.000000
Beta  =    0.000°
Phi   =    0.000°
Ctrl  =    0.000
CL    =    0.446602
Cy    =    0.000000
Cd    =    0.018206     ICd   =    0.010794     PCd   =    0.007411
Cl   = -4.59167e-16
Cm   =   -0.107619
ICn   =   -0.000000     PCn   =   -0.000000 
XCP   =    0.057923     YCP   =    0.000000     ZCP   =   -0.000000  
XNP   =    0.000000
Bending =   14.211228

Main Wing
  y-span        Chord      Ai         Cl        PCd          ICd        CmGeom    CmAirf@chord/4    XTrtop    XTrBot      XCP       BM
   -0.6394     0.2025    -2.338    0.053946    0.007365    0.002200   -0.018676    0.005157     0.6675    0.6907    0.1545    0.0000
   -0.6374     0.2110    -2.321    0.086282    0.007284    0.003496   -0.026561    0.007173     0.6579    0.6953    0.1669    0.0000
   -0.6354     0.2180    -2.306    0.104802    0.007210    0.004218   -0.029391    0.007646     0.6520    0.6974    0.1771    0.0002
   -0.6334     0.2215    -2.292    0.121917    0.007172    0.004878   -0.032653    0.008245     0.6475    0.7003    0.1824    0.0004
   -0.6314     0.2247    -2.278    0.135241    0.007134    0.005379   -0.034759    0.008481     0.6439    0.7024    0.1873    0.0008
   -0.6294     0.2272    -2.265    0.147659    0.007109    0.005840   -0.036765    0.008676     0.6407    0.7046    0.1912    0.0013
   -0.6277     0.2292    -2.254    0.155341    0.007090    0.006113   -0.037658    0.008726     0.6386    0.7057    0.1938    0.0019
   -0.6267     0.2300    -2.248    0.162513    0.007086    0.006379   -0.039126    0.008823     0.6369    0.7072    0.1957    0.0022
   -0.6250     0.2313    -2.237    0.171359    0.007078    0.006694   -0.040640    0.008898     0.6346    0.7088    0.1981    0.0030
   -0.6239     0.2321    -2.231    0.174356    0.007069    0.006776   -0.040934    0.008884     0.6336    0.7093    0.1991    0.0036
   -0.6237     0.2323    -2.229    0.177285    0.007068    0.006899   -0.041563    0.008889     0.6327    0.7100    0.1999    0.0037
   -0.6231     0.2326    -2.226    0.180714    0.007064    0.007023   -0.042224    0.008883     0.6317    0.7107    0.2008    0.0040
   -0.6224     0.2332    -2.221    0.184670    0.007058    0.007163   -0.042906    0.008863     0.6304    0.7116    0.2020    0.0045
   -0.6215     0.2339    -2.216    0.188992    0.007051    0.007312   -0.043589    0.008824     0.6291    0.7124    0.2033    0.0050
   -0.6205     0.2346    -2.210    0.193328    0.007043    0.007459   -0.044202    0.008772     0.6277    0.7133    0.2046    0.0057
   -0.6200     0.2350    -2.206    0.193603    0.007038    0.007279   -0.044159    0.008753     0.6275    0.7132    0.2050    0.0061
   -0.6199     0.2350    -2.206    0.195223    0.007038    0.007513   -0.044401    0.008748     0.6270    0.7136    0.2052    0.0062
   -0.6198     0.2351    -2.205    0.196429    0.007037    0.007561   -0.044661    0.008742     0.6267    0.7139    0.2055    0.0063
   -0.6196     0.2352    -2.204    0.197760    0.007036    0.007609   -0.044937    0.008736     0.6263    0.7142    0.2058    0.0064
   -0.6193     0.2353    -2.202    0.199265    0.007034    0.007662   -0.045236    0.008729     0.6258    0.7146    0.2062    0.0066
   -0.6190     0.2355    -2.201    0.200955    0.007033    0.007721   -0.045560    0.008721     0.6253    0.7149    0.2066    0.0069
   -0.6186     0.2357    -2.198    0.202818    0.007030    0.007785   -0.045908    0.008711     0.6247    0.7153    0.2071    0.0072
   -0.6182     0.2359    -2.196    0.204835    0.007028    0.007853   -0.046277    0.008699     0.6241    0.7158    0.2075    0.0075
   -0.6178     0.2361    -2.193    0.206975    0.007025    0.007925   -0.046660    0.008685     0.6235    0.7162    0.2080    0.0079
   -0.6173     0.2364    -2.190    0.209205    0.007023    0.008000   -0.047052    0.008669     0.6228    0.7167    0.2086    0.0083
   -0.6168     0.2366    -2.187    0.211479    0.007020    0.008076   -0.047442    0.008653     0.6221    0.7172    0.2091    0.0088
   -0.6163     0.2369    -2.184    0.213705    0.007016    0.008149   -0.047809    0.008637     0.6214    0.7177    0.2096    0.0093
   -0.6160     0.2370    -2.182    0.214220    0.007015    0.008056   -0.047896    0.008632     0.6212    0.7178    0.2098    0.0095
   -0.6159     0.2370    -2.182    0.215158    0.007015    0.008195   -0.048065    0.008632     0.6210    0.7180    0.2099    0.0096
   -0.6158     0.2371    -2.181    0.216076    0.007014    0.008229   -0.048270    0.008631     0.6207    0.7182    0.2101    0.0097
   -0.6156     0.2371    -2.180    0.217194    0.007014    0.008267   -0.048514    0.008632     0.6204    0.7185    0.2103    0.0099
   -0.6153     0.2372    -2.178    0.218537    0.007013    0.008312   -0.048804    0.008633     0.6200    0.7188    0.2105    0.0102
   -0.6150     0.2372    -2.176    0.220104    0.007012    0.008364   -0.049137    0.008634     0.6195    0.7192    0.2108    0.0105
   -0.6146     0.2373    -2.174    0.221881    0.007011    0.008423   -0.049512    0.008636     0.6190    0.7196    0.2111    0.0109
   -0.6142     0.2374    -2.172    0.223845    0.007009    0.008488   -0.049924    0.008638     0.6184    0.7201    0.2114    0.0113
   -0.6138     0.2376    -2.169    0.225968    0.007008    0.008558   -0.050368    0.008639     0.6178    0.7206    0.2118    0.0118
   -0.6133     0.2377    -2.166    0.228221    0.007007    0.008632   -0.050837    0.008638     0.6171    0.7211    0.2122    0.0124
   -0.6128     0.2378    -2.163    0.230569    0.007006    0.008709   -0.051326    0.008635     0.6163    0.7217    0.2125    0.0130
   -0.6123     0.2379    -2.160    0.232957    0.007005    0.008786   -0.051821    0.008631     0.6154    0.7223    0.2130    0.0136
   -0.6119     0.2380    -2.158    0.234533    0.007005    0.008835   -0.052158    0.008626     0.6148    0.7226    0.2132    0.0140
   -0.6117     0.2381    -2.156    0.236100    0.007005    0.008890   -0.052493    0.008622     0.6142    0.7230    0.2135    0.0143
   -0.6111     0.2382    -2.153    0.238555    0.007004    0.008970   -0.053003    0.008614     0.6133    0.7236    0.2139    0.0150
   -0.6104     0.2384    -2.149    0.241867    0.007003    0.009076   -0.053684    0.008598     0.6121    0.7244    0.2145    0.0159
   -0.6095     0.2386    -2.144    0.245897    0.007001    0.009205   -0.054509    0.008574     0.6106    0.7254    0.2151    0.0171
   -0.6085     0.2389    -2.138    0.250439    0.007001    0.009349   -0.055439    0.008542     0.6090    0.7265    0.2159    0.0186
   -0.6077     0.2391    -2.133    0.254551    0.007001    0.009481   -0.056309    0.008509     0.6075    0.7275    0.2166    0.0197
   -0.6067     0.2393    -2.127    0.259179    0.007001    0.009627   -0.057249    0.008470     0.6057    0.7287    0.2173    0.0213
   -0.6050     0.2397    -2.117    0.266859    0.007000    0.009864   -0.058772    0.008405     0.6029    0.7305    0.2185    0.0241
   -0.6037     0.2400    -2.109    0.273448    0.007001    0.010071   -0.060151    0.008394     0.6005    0.7322    0.2193    0.0264
   -0.6027     0.2400    -2.103    0.280202    0.007004    0.010289   -0.061818    0.008416     0.5982    0.7339    0.2200    0.0282
   -0.6010     0.2400    -2.092    0.292006    0.007017    0.010667   -0.064703    0.008482     0.5930    0.7370    0.2210    0.0316
   -0.5772     0.2400    -1.990    0.316814    0.007051    0.011010   -0.070763    0.008624     0.5816    0.7434    0.2228    0.0822
   -0.4893     0.2400    -1.688    0.406911    0.007179    0.011988   -0.095427    0.006488     0.5425    0.7680    0.2341    0.6306
   -0.3269     0.2400    -1.347    0.476788    0.007397    0.011208   -0.115844    0.003546     0.4956    0.7886    0.2426    4.0893
   -0.1148     0.2400    -1.161    0.508074    0.007684    0.010298   -0.124933    0.002287     0.4473    0.7994    0.2455   14.2112
    0.1148     0.2400    -1.161    0.508074    0.007684    0.010298   -0.124933    0.002287     0.4473    0.7994    0.2455   14.2112
    0.3269     0.2400    -1.347    0.476788    0.007397    0.011208   -0.115844    0.003546     0.4956    0.7886    0.2426    4.0893
    0.4893     0.2400    -1.688    0.406911    0.007179    0.011988   -0.095427    0.006488     0.5425    0.7680    0.2341    0.6306
    0.5772     0.2400    -1.990    0.316814    0.007051    0.011010   -0.070763    0.008624     0.5816    0.7434    0.2228    0.0822
    0.6010     0.2400    -2.092    0.292006    0.007017    0.010667   -0.064703    0.008482     0.5930    0.7370    0.2210    0.0316
    0.6027     0.2400    -2.103    0.280202    0.007004    0.010289   -0.061818    0.008416     0.5982    0.7339    0.2200    0.0282
    0.6037     0.2400    -2.109    0.273448    0.007001    0.010071   -0.060151    0.008394     0.6005    0.7322    0.2193    0.0264
    0.6050     0.2397    -2.117    0.266859    0.007000    0.009864   -0.058772    0.008405     0.6029    0.7305    0.2185    0.0241
    0.6067     0.2393    -2.127    0.259179    0.007001    0.009627   -0.057249    0.008470     0.6057    0.7287    0.2173    0.0213
    0.6077     0.2391    -2.133    0.254551    0.007001    0.009481   -0.056309    0.008509     0.6075    0.7275    0.2166    0.0197
    0.6085     0.2389    -2.138    0.250439    0.007001    0.009349   -0.055439    0.008542     0.6090    0.7265    0.2159    0.0186
    0.6095     0.2386    -2.144    0.245897    0.007001    0.009205   -0.054509    0.008574     0.6106    0.7254    0.2151    0.0171
    0.6104     0.2384    -2.149    0.241867    0.007003    0.009076   -0.053684    0.008598     0.6121    0.7244    0.2145    0.0159
    0.6111     0.2382    -2.153    0.238555    0.007004    0.008970   -0.053003    0.008614     0.6133    0.7236    0.2139    0.0150
    0.6117     0.2381    -2.156    0.236100    0.007005    0.008890   -0.052493    0.008622     0.6142    0.7230    0.2135    0.0143
    0.6119     0.2380    -2.158    0.234533    0.007005    0.008835   -0.052158    0.008626     0.6148    0.7226    0.2132    0.0140
    0.6123     0.2379    -2.160    0.232957    0.007005    0.008786   -0.051821    0.008631     0.6154    0.7223    0.2130    0.0136
    0.6128     0.2378    -2.163    0.230569    0.007006    0.008709   -0.051326    0.008635     0.6163    0.7217    0.2125    0.0130
    0.6133     0.2377    -2.166    0.228221    0.007007    0.008632   -0.050837    0.008638     0.6171    0.7211    0.2122    0.0124
    0.6138     0.2376    -2.169    0.225968    0.007008    0.008558   -0.050368    0.008639     0.6178    0.7206    0.2118    0.0118
    0.6142     0.2374    -2.172    0.223845    0.007009    0.008488   -0.049924    0.008638     0.6184    0.7201    0.2114    0.0113
    0.6146     0.2373    -2.174    0.221881    0.007011    0.008423   -0.049512    0.008636     0.6190    0.7196    0.2111    0.0109
    0.6150     0.2372    -2.176    0.220104    0.007012    0.008364   -0.049137    0.008634     0.6195    0.7192    0.2108    0.0105
    0.6153     0.2372    -2.178    0.218537    0.007013    0.008312   -0.048804    0.008633     0.6200    0.7188    0.2105    0.0102
    0.6156     0.2371    -2.180    0.217194    0.007014    0.008267   -0.048514    0.008632     0.6204    0.7185    0.2103    0.0099
    0.6158     0.2371    -2.181    0.216076    0.007014    0.008229   -0.048270    0.008631     0.6207    0.7182    0.2101    0.0097
    0.6159     0.2370    -2.182    0.215158    0.007015    0.008195   -0.048065    0.008632     0.6210    0.7180    0.2099    0.0096
    0.6160     0.2370    -2.182    0.214220    0.007015    0.008056   -0.047896    0.008632     0.6212    0.7178    0.2098    0.0095
    0.6163     0.2369    -2.184    0.213705    0.007016    0.008149   -0.047809    0.008637     0.6214    0.7177    0.2096    0.0093
    0.6168     0.2366    -2.187    0.211479    0.007020    0.008076   -0.047442    0.008653     0.6221    0.7172    0.2091    0.0088
    0.6173     0.2364    -2.190    0.209205    0.007023    0.008000   -0.047052    0.008669     0.6228    0.7167    0.2086    0.0083
    0.6178     0.2361    -2.193    0.206975    0.007025    0.007925   -0.046660    0.008685     0.6235    0.7162    0.2080    0.0079
    0.6182     0.2359    -2.196    0.204835    0.007028    0.007853   -0.046277    0.008699     0.6241    0.7158    0.2075    0.0075
    0.6186     0.2357    -2.198    0.202818    0.007030    0.007785   -0.045908    0.008711     0.6247    0.7153    0.2071    0.0072
    0.6190     0.2355    -2.201    0.200955    0.007033    0.007721   -0.045560    0.008721     0.6253    0.7149    0.2066    0.0069
    0.6193     0.2353    -2.202    0.199265    0.007034    0.007662   -0.045236    0.008729     0.6258    0.7146    0.2062    0.0066
    0.6196     0.2352    -2.204    0.197760    0.007036    0.007609   -0.044937    0.008736     0.6263    0.7142    0.2058    0.0064
    0.6198     0.2351    -2.205    0.196429    0.007037    0.007561   -0.044661    0.008742     0.6267    0.7139    0.2055    0.0063
    0.6199     0.2350    -2.206    0.195223    0.007038    0.007513   -0.044401    0.008748     0.6270    0.7136    0.2052    0.0062
    0.6200     0.2350    -2.206    0.193603    0.007038    0.007279   -0.044159    0.008753     0.6275    0.7132    0.2050    0.0061
    0.6205     0.2346    -2.210    0.193328    0.007043    0.007459   -0.044202    0.008772     0.6277    0.7133    0.2046    0.0057
    0.6215     0.2339    -2.216    0.188992    0.007051    0.007312   -0.043589    0.008824     0.6291    0.7124    0.2033    0.0050
    0.6224     0.2332    -2.221    0.184670    0.007058    0.007163   -0.042906    0.008863     0.6304    0.7116    0.2020    0.0045
    0.6231     0.2326    -2.226    0.180714    0.007064    0.007023   -0.042224    0.008883     0.6317    0.7107    0.2008    0.0040
    0.6237     0.2323    -2.229    0.177285    0.007068    0.006899   -0.041563    0.008889     0.6327    0.7100    0.1999    0.0037
    0.6239     0.2321    -2.231    0.174356    0.007069    0.006776   -0.040934    0.008884     0.6336    0.7093    0.1991    0.0036
    0.6250     0.2313    -2.237    0.171359    0.007078    0.006694   -0.040640    0.008898     0.6346    0.7088    0.1981    0.0030
    0.6267     0.2300    -2.248    0.162513    0.007086    0.006379   -0.039126    0.008823     0.6369    0.7072    0.1957    0.0022
    0.6277     0.2292    -2.254    0.155341    0.007090    0.006113   -0.037658    0.008726     0.6386    0.7057    0.1938    0.0019
    0.6294     0.2272    -2.265    0.147659    0.007109    0.005840   -0.036765    0.008676     0.6407    0.7046    0.1912    0.0013
    0.6314     0.2247    -2.278    0.135241    0.007134    0.005379   -0.034759    0.008481     0.6439    0.7024    0.1873    0.0008
    0.6334     0.2215    -2.292    0.121917    0.007172    0.004878   -0.032653    0.008245     0.6475    0.7003    0.1824    0.0004
    0.6354     0.2180    -2.306    0.104802    0.007210    0.004218   -0.029391    0.007646     0.6520    0.6974    0.1771    0.0002
    0.6374     0.2110    -2.321    0.086282    0.007284    0.003496   -0.026561    0.007173     0.6579    0.6953    0.1669    0.0000
    0.6394     0.2025    -2.338    0.053946    0.007365    0.002200   -0.018676    0.005157     0.6675    0.6907    0.1545    0.0000


Main Wing Cp Coefficients
 Panel     CtrlPt.x        CtrlPt.y        CtrlPt.z       Nx      Ny       Nz        Area       Cp
Main WingCp Coefficients
Strip 1
   0       2.393e-01      -6.394e-01       2.536e-09           0.000          -0.000           1.000       3.447e-06          0.0040
   1       2.349e-01      -6.394e-01       4.565e-09          -0.000          -0.000           1.000       1.014e-05          0.0059
   2       2.249e-01      -6.394e-01      -3.147e-09           0.000           0.000           1.000       1.624e-05          0.0082
   3       2.100e-01      -6.394e-01       1.841e-08          -0.000          -0.000           1.000       2.140e-05          0.0108
   4       1.909e-01      -6.394e-01       3.072e-08           0.000           0.000           1.000       2.532e-05          0.0138
   5       1.687e-01      -6.394e-01       2.907e-07           0.000           0.000           1.000       2.776e-05          0.0173
   6       1.449e-01      -6.394e-01       8.378e-07           0.000          -0.000           1.000       2.860e-05          0.0215
   7       1.206e-01      -6.394e-01      -1.127e-08          -0.000          -0.000           1.000       2.776e-05          0.0259
   8       9.745e-02      -6.394e-01      -1.467e-06           0.000           0.001           1.000       2.532e-05          0.0329
   9       7.667e-02      -6.394e-01       1.891e-06          -0.000          -0.001           1.000       2.140e-05          0.0457
  10       5.951e-02      -6.394e-01      -2.255e-07          -0.000          -0.000           1.000       1.624e-05          0.0833
  11       4.694e-02      -6.394e-01      -6.862e-07           0.000           0.000           1.000       1.014e-05          0.2608
  12       3.972e-02      -6.394e-01      -4.085e-07           0.000           0.001           1.000       3.447e-06          1.2749
Strip 2
  13       2.392e-01      -6.374e-01       2.643e-09           0.000          -0.000           1.000       8.671e-06          0.0061
  14       2.347e-01      -6.374e-01       4.756e-09          -0.000          -0.000           1.000       2.551e-05          0.0096
  15       2.243e-01      -6.374e-01      -3.279e-09           0.000           0.000           1.000       4.086e-05          0.0134
  16       2.087e-01      -6.374e-01       1.918e-08          -0.000          -0.000           1.000       5.384e-05          0.0177
  17       1.888e-01      -6.374e-01       3.201e-08           0.000           0.000           1.000       6.369e-05          0.0227
  18       1.657e-01      -6.374e-01       3.030e-07           0.000           0.000           1.000       6.984e-05          0.0287
  19       1.409e-01      -6.374e-01       8.730e-07           0.000          -0.000           1.000       7.193e-05          0.0360
  20       1.156e-01      -6.374e-01      -1.175e-08          -0.000          -0.000           1.000       6.984e-05          0.0444
  21       9.147e-02      -6.374e-01      -1.529e-06           0.000           0.001           1.000       6.369e-05          0.0579
  22       6.982e-02      -6.374e-01       1.971e-06          -0.000          -0.001           1.000       5.384e-05          0.0850
  23       5.193e-02      -6.374e-01      -2.349e-07          -0.000          -0.000           1.000       4.086e-05          0.1952
  24       3.884e-02      -6.374e-01      -7.150e-07           0.000           0.000           1.000       2.551e-05          0.5234
  25       3.131e-02      -6.374e-01      -4.256e-07           0.000           0.001           1.000       8.671e-06          1.2648
Strip 3
  26       2.392e-01      -6.354e-01       2.731e-09           0.000          -0.000           1.000       3.711e-06          0.0074
  27       2.345e-01      -6.354e-01       4.915e-09          -0.000          -0.000           1.000       1.092e-05          0.0118
  28       2.238e-01      -6.354e-01      -3.388e-09           0.000           0.000           1.000       1.749e-05          0.0167
  29       2.077e-01      -6.354e-01       1.982e-08          -0.000          -0.000           1.000       2.305e-05          0.0222
  30       1.871e-01      -6.354e-01       3.308e-08           0.000           0.000           1.000       2.726e-05          0.0285
  31       1.633e-01      -6.354e-01       3.131e-07           0.000           0.000           1.000       2.989e-05          0.0363
  32       1.376e-01      -6.354e-01       9.021e-07           0.000          -0.000           1.000       3.079e-05          0.0460
  33       1.115e-01      -6.354e-01      -1.214e-08          -0.000          -0.000           1.000       2.989e-05          0.0580
  34       8.651e-02      -6.354e-01      -1.580e-06           0.000           0.000           1.000       2.726e-05          0.0786
  35       6.414e-02      -6.354e-01       2.036e-06          -0.000          -0.000           1.000       2.305e-05          0.1238
  36       4.566e-02      -6.354e-01      -2.427e-07          -0.000          -0.000           1.000       1.749e-05          0.2666
  37       3.213e-02      -6.354e-01      -7.388e-07           0.000           0.000           1.000       1.092e-05          0.5237
  38       2.435e-02      -6.354e-01      -4.398e-07           0.000           0.000           1.000       3.711e-06          1.4615
Strip 4
  39       2.392e-01      -6.334e-01       2.775e-09           0.000          -0.000           1.000       9.103e-06          0.0085
  40       2.344e-01      -6.334e-01       4.994e-09          -0.000          -0.000           1.000       2.678e-05          0.0139
  41       2.235e-01      -6.334e-01      -3.443e-09           0.000           0.000           1.000       4.290e-05          0.0198
  42       2.071e-01      -6.334e-01       2.014e-08          -0.000          -0.000           1.000       5.653e-05          0.0263
  43       1.862e-01      -6.334e-01       3.361e-08           0.000           0.000           1.000       6.687e-05          0.0340
  44       1.620e-01      -6.334e-01       3.181e-07           0.000           0.000           1.000       7.333e-05          0.0434
  45       1.359e-01      -6.334e-01       9.166e-07           0.000          -0.000           1.000       7.552e-05          0.0554
  46       1.094e-01      -6.334e-01      -1.233e-08          -0.000          -0.000           1.000       7.333e-05          0.0706
  47       8.405e-02      -6.334e-01      -1.605e-06           0.000           0.000           1.000       6.687e-05          0.0968
  48       6.132e-02      -6.334e-01       2.069e-06          -0.000          -0.000           1.000       5.653e-05          0.1542
  49       4.254e-02      -6.334e-01      -2.466e-07          -0.000          -0.000           1.000       4.290e-05          0.2997
  50       2.879e-02      -6.334e-01      -7.507e-07           0.000           0.000           1.000       2.678e-05          0.5992
  51       2.089e-02      -6.334e-01      -4.469e-07           0.000           0.000           1.000       9.103e-06          1.6137
Strip 5
  52       2.392e-01      -6.314e-01       2.815e-09           0.000          -0.000           1.000       3.825e-06          0.0093
  53       2.343e-01      -6.314e-01       5.066e-09          -0.000          -0.000           1.000       1.125e-05          0.0155
  54       2.233e-01      -6.314e-01      -3.492e-09           0.000           0.000           1.000       1.803e-05          0.0223
  55       2.067e-01      -6.314e-01       2.043e-08          -0.000          -0.000           1.000       2.375e-05          0.0298
  56       1.855e-01      -6.314e-01       3.410e-08           0.000           0.000           1.000       2.810e-05          0.0386
  57       1.609e-01      -6.314e-01       3.227e-07           0.000           0.000           1.000       3.081e-05          0.0494
  58       1.344e-01      -6.314e-01       9.299e-07           0.000          -0.000           1.000       3.174e-05          0.0632
  59       1.075e-01      -6.314e-01      -1.251e-08          -0.000          -0.000           1.000       3.081e-05          0.0812
  60       8.179e-02      -6.314e-01      -1.629e-06           0.000           0.000           1.000       2.810e-05          0.1126
  61       5.873e-02      -6.314e-01       2.099e-06          -0.000          -0.000           1.000       2.375e-05          0.1800
  62       3.968e-02      -6.314e-01      -2.502e-07          -0.000          -0.000           1.000       1.803e-05          0.3329
  63       2.574e-02      -6.314e-01      -7.615e-07           0.000           0.000           1.000       1.125e-05          0.6489
  64       1.772e-02      -6.314e-01      -4.534e-07           0.000           0.000           1.000       3.825e-06          1.6822
Strip 6
  65       2.392e-01      -6.294e-01       2.846e-09           0.000          -0.000           1.000       9.338e-06          0.0102
  66       2.343e-01      -6.294e-01       5.122e-09          -0.000          -0.000           1.000       2.747e-05          0.0171
  67       2.231e-01      -6.294e-01      -3.531e-09           0.000           0.000           1.000       4.401e-05          0.0247
  68       2.063e-01      -6.294e-01       2.065e-08          -0.000          -0.000           1.000       5.799e-05          0.0330
  69       1.849e-01      -6.294e-01       3.448e-08           0.000           0.000           1.000       6.860e-05          0.0429
  70       1.600e-01      -6.294e-01       3.263e-07           0.000           0.000           1.000       7.522e-05          0.0550
  71       1.332e-01      -6.294e-01       9.402e-07           0.000          -0.000           1.000       7.747e-05          0.0707
  72       1.060e-01      -6.294e-01      -1.265e-08          -0.000          -0.000           1.000       7.522e-05          0.0913
  73       8.003e-02      -6.294e-01      -1.647e-06           0.000           0.000           1.000       6.860e-05          0.1276
  74       5.672e-02      -6.294e-01       2.122e-06          -0.000          -0.000           1.000       5.799e-05          0.2034
  75       3.745e-02      -6.294e-01      -2.530e-07          -0.000          -0.000           1.000       4.401e-05          0.3618
  76       2.335e-02      -6.294e-01      -7.700e-07           0.000           0.000           1.000       2.747e-05          0.6948
  77       1.524e-02      -6.294e-01      -4.584e-07           0.000           0.000           1.000       9.338e-06          1.7523
Strip 7
  78       2.392e-01      -6.277e-01       2.871e-09           0.000          -0.000           1.000       1.785e-06          0.0107
  79       2.342e-01      -6.277e-01       5.167e-09          -0.000          -0.000           1.000       5.250e-06          0.0181
  80       2.229e-01      -6.277e-01      -3.562e-09           0.000           0.000           1.000       8.410e-06          0.0262
  81       2.060e-01      -6.277e-01       2.083e-08          -0.000          -0.000           1.000       1.108e-05          0.0352
  82       1.844e-01      -6.277e-01       3.477e-08           0.000           0.000           1.000       1.311e-05          0.0457
  83       1.593e-01      -6.277e-01       3.291e-07           0.000           0.000           1.000       1.438e-05          0.0587
  84       1.323e-01      -6.277e-01       9.483e-07           0.000          -0.000           1.000       1.481e-05          0.0756
  85       1.049e-01      -6.277e-01      -1.276e-08          -0.000          -0.000           1.000       1.438e-05          0.0980
  86       7.865e-02      -6.277e-01      -1.661e-06           0.000           0.000           1.000       1.311e-05          0.1375
  87       5.513e-02      -6.277e-01       2.141e-06          -0.000          -0.000           1.000       1.108e-05          0.2176
  88       3.570e-02      -6.277e-01      -2.552e-07          -0.000          -0.000           1.000       8.410e-06          0.3793
  89       2.148e-02      -6.277e-01      -7.767e-07           0.000           0.000           1.000       5.250e-06          0.7168
  90       1.330e-02      -6.277e-01      -4.624e-07           0.000           0.000           1.000       1.785e-06          1.8061
Strip 8
  91       2.392e-01      -6.267e-01       2.880e-09           0.000          -0.000           1.000       4.892e-06          0.0111
  92       2.342e-01      -6.267e-01       5.184e-09          -0.000          -0.000           1.000       1.439e-05          0.0190
  93       2.229e-01      -6.267e-01      -3.574e-09           0.000           0.000           1.000       2.305e-05          0.0276
  94       2.059e-01      -6.267e-01       2.090e-08          -0.000          -0.000           1.000       3.038e-05          0.0371
  95       1.842e-01      -6.267e-01       3.489e-08           0.000           0.000           1.000       3.593e-05          0.0482
  96       1.591e-01      -6.267e-01       3.302e-07           0.000           0.000           1.000       3.940e-05          0.0621
  97       1.320e-01      -6.267e-01       9.514e-07           0.000          -0.000           1.000       4.058e-05          0.0801
  98       1.044e-01      -6.267e-01      -1.280e-08          -0.000          -0.000           1.000       3.940e-05          0.1041
  99       7.812e-02      -6.267e-01      -1.666e-06           0.000           0.000           1.000       3.593e-05          0.1464
 100       5.452e-02      -6.267e-01       2.148e-06          -0.000          -0.000           1.000       3.038e-05          0.2301
 101       3.503e-02      -6.267e-01      -2.560e-07          -0.000          -0.000           1.000       2.305e-05          0.3940
 102       2.076e-02      -6.267e-01      -7.792e-07           0.000           0.000           1.000       1.439e-05          0.7280
 103       1.255e-02      -6.267e-01      -4.639e-07           0.000           0.000           1.000       4.892e-06          1.8988
Strip 9
 104       2.392e-01      -6.250e-01       2.896e-09           0.000          -0.000           1.000       6.720e-06          0.0117
 105       2.342e-01      -6.250e-01       5.213e-09          -0.000          -0.000           1.000       1.977e-05          0.0201
 106       2.228e-01      -6.250e-01      -3.594e-09           0.000           0.000           1.000       3.167e-05          0.0293
 107       2.057e-01      -6.250e-01       2.102e-08          -0.000          -0.000           1.000       4.173e-05          0.0395
 108       1.839e-01      -6.250e-01       3.509e-08           0.000           0.000           1.000       4.936e-05          0.0515
 109       1.586e-01      -6.250e-01       3.320e-07           0.000           0.000           1.000       5.413e-05          0.0664
 110       1.313e-01      -6.250e-01       9.568e-07           0.000          -0.000           1.000       5.575e-05          0.0857
 111       1.037e-01      -6.250e-01      -1.288e-08          -0.000          -0.000           1.000       5.413e-05          0.1118
 112       7.720e-02      -6.250e-01      -1.676e-06           0.000           0.000           1.000       4.936e-05          0.1576
 113       5.348e-02      -6.250e-01       2.160e-06          -0.000          -0.000           1.000       4.173e-05          0.2453
 114       3.387e-02      -6.250e-01      -2.575e-07          -0.000          -0.000           1.000       3.167e-05          0.4115
 115       1.952e-02      -6.250e-01      -7.836e-07           0.000           0.000           1.000       1.977e-05          0.7531
 116       1.127e-02      -6.250e-01      -4.665e-07           0.000           0.000           1.000       6.720e-06          1.9787
Strip 10
 117       2.392e-01      -6.239e-01       2.906e-09           0.000          -0.000           1.000       4.595e-07          0.0119
 118       2.341e-01      -6.239e-01       5.231e-09          -0.000          -0.000           1.000       1.352e-06          0.0205
 119       2.227e-01      -6.239e-01      -3.606e-09           0.000           0.000           1.000       2.166e-06          0.0300
 120       2.056e-01      -6.239e-01       2.109e-08          -0.000          -0.000           1.000       2.854e-06          0.0404
 121       1.837e-01      -6.239e-01       3.521e-08           0.000           0.000           1.000       3.376e-06          0.0527
 122       1.583e-01      -6.239e-01       3.332e-07           0.000           0.000           1.000       3.702e-06          0.0680
 123       1.310e-01      -6.239e-01       9.601e-07           0.000          -0.000           1.000       3.812e-06          0.0879
 124       1.032e-01      -6.239e-01      -1.292e-08          -0.000          -0.000           1.000       3.702e-06          0.1147
 125       7.664e-02      -6.239e-01      -1.682e-06           0.000           0.000           1.000       3.376e-06          0.1618
 126       5.283e-02      -6.239e-01       2.167e-06          -0.000          -0.000           1.000       2.854e-06          0.2510
 127       3.316e-02      -6.239e-01      -2.584e-07          -0.000          -0.000           1.000       2.166e-06          0.4186
 128       1.876e-02      -6.239e-01      -7.863e-07           0.000           0.000           1.000       1.352e-06          0.7648
 129       1.048e-02      -6.239e-01      -4.681e-07           0.000           0.000           1.000       4.595e-07          1.9886
Strip 11
 130       2.392e-01      -6.237e-01       2.909e-09           0.000           0.000           1.000       1.348e-06          0.0121
 131       2.341e-01      -6.237e-01       5.236e-09          -0.000          -0.000           1.000       3.967e-06          0.0208
 132       2.227e-01      -6.237e-01      -3.609e-09           0.000           0.000           1.000       6.355e-06          0.0305
 133       2.056e-01      -6.237e-01       2.111e-08          -0.000          -0.000           1.000       8.373e-06          0.0412
 134       1.836e-01      -6.237e-01       3.524e-08           0.000           0.000           1.000       9.905e-06          0.0538
 135       1.583e-01      -6.237e-01       3.335e-07           0.000           0.000           1.000       1.086e-05          0.0694
 136       1.309e-01      -6.237e-01       9.610e-07           0.000          -0.000           1.000       1.119e-05          0.0897
 137       1.031e-01      -6.237e-01      -1.293e-08          -0.000          -0.000           1.000       1.086e-05          0.1172
 138       7.650e-02      -6.237e-01      -1.683e-06           0.000           0.000           1.000       9.905e-06          0.1654
 139       5.267e-02      -6.237e-01       2.169e-06          -0.000          -0.000           1.000       8.373e-06          0.2559
 140       3.298e-02      -6.237e-01      -2.586e-07          -0.000          -0.000           1.000       6.355e-06          0.4250
 141       1.857e-02      -6.237e-01      -7.870e-07           0.000           0.000           1.000       3.967e-06          0.7754
 142       1.028e-02      -6.237e-01      -4.685e-07           0.000           0.000           1.000       1.348e-06          1.9992
Strip 12
 143       2.392e-01      -6.231e-01       2.914e-09           0.000          -0.000           1.000       2.149e-06          0.0124
 144       2.341e-01      -6.231e-01       5.244e-09          -0.000          -0.000           1.000       6.321e-06          0.0213
 145       2.227e-01      -6.231e-01      -3.615e-09           0.000           0.000           1.000       1.013e-05          0.0312
 146       2.055e-01      -6.231e-01       2.115e-08          -0.000          -0.000           1.000       1.334e-05          0.0422
 147       1.835e-01      -6.231e-01       3.530e-08           0.000           0.000           1.000       1.578e-05          0.0551
 148       1.581e-01      -6.231e-01       3.340e-07           0.000           0.000           1.000       1.731e-05          0.0711
 149       1.307e-01      -6.231e-01       9.626e-07           0.000          -0.000           1.000       1.783e-05          0.0920
 150       1.029e-01      -6.231e-01      -1.295e-08          -0.000          -0.000           1.000       1.731e-05          0.1204
 151       7.622e-02      -6.231e-01      -1.686e-06           0.000           0.000           1.000       1.578e-05          0.1699
 152       5.236e-02      -6.231e-01       2.173e-06          -0.000          -0.000           1.000       1.334e-05          0.2620
 153       3.263e-02      -6.231e-01      -2.590e-07          -0.000          -0.000           1.000       1.013e-05          0.4330
 154       1.820e-02      -6.231e-01      -7.883e-07           0.000           0.000           1.000       6.321e-06          0.7887
 155       9.895e-03      -6.231e-01      -4.693e-07           0.000           0.000           1.000       2.149e-06          2.0087
Strip 13
 156       2.392e-01      -6.224e-01       2.921e-09           0.000          -0.000           1.000       2.807e-06          0.0126
 157       2.341e-01      -6.224e-01       5.257e-09          -0.000          -0.000           1.000       8.257e-06          0.0218
 158       2.227e-01      -6.224e-01      -3.624e-09           0.000           0.000           1.000       1.323e-05          0.0320
 159       2.054e-01      -6.224e-01       2.120e-08          -0.000          -0.000           1.000       1.743e-05          0.0433
 160       1.834e-01      -6.224e-01       3.538e-08           0.000           0.000           1.000       2.062e-05          0.0566
 161       1.579e-01      -6.224e-01       3.348e-07           0.000           0.000           1.000       2.261e-05          0.0731
 162       1.304e-01      -6.224e-01       9.648e-07           0.000          -0.000           1.000       2.329e-05          0.0947
 163       1.025e-01      -6.224e-01      -1.298e-08          -0.000          -0.000           1.000       2.261e-05          0.1240
 164       7.584e-02      -6.224e-01      -1.690e-06           0.000           0.000           1.000       2.062e-05          0.1752
 165       5.191e-02      -6.224e-01       2.178e-06          -0.000          -0.000           1.000       1.743e-05          0.2692
 166       3.214e-02      -6.224e-01      -2.596e-07          -0.000          -0.000           1.000       1.323e-05          0.4427
 167       1.767e-02      -6.224e-01      -7.902e-07           0.000           0.000           1.000       8.257e-06          0.8045
 168       9.352e-03      -6.224e-01      -4.704e-07           0.000           0.000           1.000       2.807e-06          2.0142
Strip 14
 169       2.392e-01      -6.215e-01       2.929e-09           0.000          -0.000           1.000       3.278e-06          0.0129
 170       2.341e-01      -6.215e-01       5.272e-09          -0.000          -0.000           1.000       9.643e-06          0.0223
 171       2.226e-01      -6.215e-01      -3.634e-09           0.000           0.000           1.000       1.545e-05          0.0329
 172       2.053e-01      -6.215e-01       2.126e-08          -0.000          -0.000           1.000       2.036e-05          0.0446
 173       1.833e-01      -6.215e-01       3.548e-08           0.000           0.000           1.000       2.408e-05          0.0583
 174       1.577e-01      -6.215e-01       3.358e-07           0.000           0.000           1.000       2.640e-05          0.0753
 175       1.301e-01      -6.215e-01       9.676e-07           0.000          -0.000           1.000       2.719e-05          0.0976
 176       1.021e-01      -6.215e-01      -1.302e-08          -0.000          -0.000           1.000       2.640e-05          0.1281
 177       7.536e-02      -6.215e-01      -1.695e-06           0.000           0.000           1.000       2.408e-05          0.1810
 178       5.137e-02      -6.215e-01       2.184e-06          -0.000          -0.000           1.000       2.036e-05          0.2772
 179       3.154e-02      -6.215e-01      -2.604e-07          -0.000          -0.000           1.000       1.545e-05          0.4536
 180       1.703e-02      -6.215e-01      -7.925e-07           0.000           0.000           1.000       9.643e-06          0.8224
 181       8.687e-03      -6.215e-01      -4.718e-07           0.000           0.000           1.000       3.278e-06          2.0138
Strip 15
 182       2.391e-01      -6.205e-01       2.938e-09           0.000          -0.000           1.000       3.529e-06          0.0132
 183       2.341e-01      -6.205e-01       5.289e-09          -0.000          -0.000           1.000       1.038e-05          0.0229
 184       2.225e-01      -6.205e-01      -3.646e-09           0.000           0.000           1.000       1.663e-05          0.0338
 185       2.052e-01      -6.205e-01       2.132e-08          -0.000          -0.000           1.000       2.191e-05          0.0458
 186       1.831e-01      -6.205e-01       3.560e-08           0.000           0.000           1.000       2.592e-05          0.0600
 187       1.574e-01      -6.205e-01       3.369e-07           0.000           0.000           1.000       2.843e-05          0.0776
 188       1.298e-01      -6.205e-01       9.707e-07           0.000          -0.000           1.000       2.928e-05          0.1006
 189       1.017e-01      -6.205e-01      -1.306e-08          -0.000          -0.000           1.000       2.843e-05          0.1322
 190       7.484e-02      -6.205e-01      -1.700e-06           0.000           0.000           1.000       2.592e-05          0.1869
 191       5.076e-02      -6.205e-01       2.191e-06          -0.000          -0.000           1.000       2.191e-05          0.2852
 192       3.087e-02      -6.205e-01      -2.612e-07          -0.000          -0.000           1.000       1.663e-05          0.4648
 193       1.632e-02      -6.205e-01      -7.950e-07           0.000           0.000           1.000       1.038e-05          0.8404
 194       7.945e-03      -6.205e-01      -4.733e-07           0.000           0.000           1.000       3.529e-06          2.0102
Strip 16
 195       2.391e-01      -6.200e-01       2.943e-09           0.000          -0.000           1.000       1.168e-07          0.0133
 196       2.341e-01      -6.200e-01       5.298e-09          -0.000          -0.000           1.000       3.437e-07          0.0230
 197       2.225e-01      -6.200e-01      -3.652e-09           0.000           0.000           1.000       5.507e-07          0.0340
 198       2.051e-01      -6.200e-01       2.136e-08          -0.000          -0.000           1.000       7.256e-07          0.0462
 199       1.830e-01      -6.200e-01       3.566e-08           0.000           0.000           1.000       8.583e-07          0.0604
 200       1.573e-01      -6.200e-01       3.374e-07           0.000           0.000           1.000       9.412e-07          0.0781
 201       1.296e-01      -6.200e-01       9.724e-07           0.000          -0.000           1.000       9.694e-07          0.1014
 202       1.015e-01      -6.200e-01      -1.309e-08          -0.000          -0.000           1.000       9.412e-07          0.1332
 203       7.456e-02      -6.200e-01      -1.703e-06           0.000           0.000           1.000       8.583e-07          0.1883
 204       5.044e-02      -6.200e-01       2.195e-06          -0.000          -0.000           1.000       7.256e-07          0.2871
 205       3.052e-02      -6.200e-01      -2.617e-07          -0.000          -0.000           1.000       5.507e-07          0.4672
 206       1.594e-02      -6.200e-01      -7.963e-07           0.000           0.000           1.000       3.437e-07          0.8432
 207       7.552e-03      -6.200e-01      -4.741e-07           0.000           0.000           1.000       1.168e-07          2.0126
Strip 17
 208       2.391e-01      -6.199e-01       2.944e-09           0.000           0.000           1.000       3.486e-07          0.0134
 209       2.341e-01      -6.199e-01       5.299e-09          -0.000          -0.000           1.000       1.025e-06          0.0232
 210       2.225e-01      -6.199e-01      -3.653e-09           0.000           0.000           1.000       1.643e-06          0.0342
 211       2.051e-01      -6.199e-01       2.136e-08          -0.000          -0.000           1.000       2.165e-06          0.0464
 212       1.830e-01      -6.199e-01       3.566e-08           0.000           0.000           1.000       2.561e-06          0.0608
 213       1.573e-01      -6.199e-01       3.375e-07           0.000           0.000           1.000       2.808e-06          0.0786
 214       1.296e-01      -6.199e-01       9.725e-07           0.000          -0.000           1.000       2.892e-06          0.1020
 215       1.014e-01      -6.199e-01      -1.309e-08          -0.000          -0.000           1.000       2.808e-06          0.1341
 216       7.453e-02      -6.199e-01      -1.703e-06           0.000           0.000           1.000       2.561e-06          0.1896
 217       5.042e-02      -6.199e-01       2.195e-06          -0.000          -0.000           1.000       2.165e-06          0.2888
 218       3.049e-02      -6.199e-01      -2.617e-07          -0.000          -0.000           1.000       1.643e-06          0.4696
 219       1.591e-02      -6.199e-01      -7.965e-07           0.000           0.000           1.000       1.025e-06          0.8461
 220       7.519e-03      -6.199e-01      -4.742e-07           0.000           0.000           1.000       3.486e-07          2.0172
Strip 18
 221       2.391e-01      -6.198e-01       2.945e-09           0.000          -0.000           1.000       5.745e-07          0.0135
 222       2.341e-01      -6.198e-01       5.300e-09          -0.000          -0.000           1.000       1.690e-06          0.0233
 223       2.225e-01      -6.198e-01      -3.654e-09           0.000           0.000           1.000       2.708e-06          0.0345
 224       2.051e-01      -6.198e-01       2.137e-08          -0.000          -0.000           1.000       3.568e-06          0.0468
 225       1.830e-01      -6.198e-01       3.567e-08           0.000           0.000           1.000       4.220e-06          0.0612
 226       1.573e-01      -6.198e-01       3.376e-07           0.000           0.000           1.000       4.628e-06          0.0792
 227       1.295e-01      -6.198e-01       9.728e-07           0.000          -0.000           1.000       4.766e-06          0.1028
 228       1.014e-01      -6.198e-01      -1.309e-08          -0.000          -0.000           1.000       4.628e-06          0.1352
 229       7.449e-02      -6.198e-01      -1.704e-06           0.000           0.000           1.000       4.220e-06          0.1911
 230       5.036e-02      -6.198e-01       2.196e-06          -0.000          -0.000           1.000       3.568e-06          0.2909
 231       3.043e-02      -6.198e-01      -2.618e-07          -0.000          -0.000           1.000       2.708e-06          0.4724
 232       1.584e-02      -6.198e-01      -7.967e-07           0.000           0.000           1.000       1.690e-06          0.8490
 233       7.452e-03      -6.198e-01      -4.743e-07           0.000           0.000           1.000       5.745e-07          2.0240
Strip 19
 234       2.391e-01      -6.196e-01       2.946e-09           0.000          -0.000           1.000       7.908e-07          0.0135
 235       2.341e-01      -6.196e-01       5.302e-09          -0.000          -0.000           1.000       2.327e-06          0.0235
 236       2.225e-01      -6.196e-01      -3.655e-09           0.000           0.000           1.000       3.727e-06          0.0347
 237       2.051e-01      -6.196e-01       2.138e-08          -0.000          -0.000           1.000       4.911e-06          0.0472
 238       1.829e-01      -6.196e-01       3.569e-08           0.000           0.000           1.000       5.809e-06          0.0617
 239       1.572e-01      -6.196e-01       3.377e-07           0.000           0.000           1.000       6.370e-06          0.0799
 240       1.295e-01      -6.196e-01       9.732e-07           0.000          -0.000           1.000       6.561e-06          0.1037
 241       1.013e-01      -6.196e-01      -1.310e-08          -0.000          -0.000           1.000       6.370e-06          0.1364
 242       7.442e-02      -6.196e-01      -1.704e-06           0.000           0.000           1.000       5.809e-06          0.1929
 243       5.028e-02      -6.196e-01       2.197e-06          -0.000          -0.000           1.000       4.911e-06          0.2932
 244       3.034e-02      -6.196e-01      -2.619e-07          -0.000          -0.000           1.000       3.727e-06          0.4754
 245       1.575e-02      -6.196e-01      -7.970e-07           0.000           0.000           1.000       2.327e-06          0.8520
 246       7.353e-03      -6.196e-01      -4.745e-07           0.000           0.000           1.000       7.908e-07          2.0334
Strip 20
 247       2.391e-01      -6.193e-01       2.948e-09           0.000          -0.000           1.000       9.939e-07          0.0136
 248       2.341e-01      -6.193e-01       5.305e-09          -0.000          -0.000           1.000       2.924e-06          0.0237
 249       2.225e-01      -6.193e-01      -3.657e-09           0.000           0.000           1.000       4.684e-06          0.0351
 250       2.051e-01      -6.193e-01       2.139e-08          -0.000          -0.000           1.000       6.172e-06          0.0476
 251       1.829e-01      -6.193e-01       3.571e-08           0.000           0.000           1.000       7.301e-06          0.0623
 252       1.572e-01      -6.193e-01       3.379e-07           0.000           0.000           1.000       8.006e-06          0.0807
 253       1.294e-01      -6.193e-01       9.737e-07           0.000          -0.000           1.000       8.246e-06          0.1047
 254       1.013e-01      -6.193e-01      -1.310e-08          -0.000          -0.000           1.000       8.006e-06          0.1378
 255       7.432e-02      -6.193e-01      -1.705e-06           0.000           0.000           1.000       7.301e-06          0.1948
 256       5.018e-02      -6.193e-01       2.198e-06          -0.000          -0.000           1.000       6.172e-06          0.2958
 257       3.022e-02      -6.193e-01      -2.620e-07          -0.000          -0.000           1.000       4.684e-06          0.4788
 258       1.562e-02      -6.193e-01      -7.975e-07           0.000           0.000           1.000       2.924e-06          0.8550
 259       7.224e-03      -6.193e-01      -4.748e-07           0.000           0.000           1.000       9.939e-07          2.0453
Strip 21
 260       2.391e-01      -6.190e-01       2.950e-09           0.000          -0.000           1.000       1.180e-06          0.0138
 261       2.341e-01      -6.190e-01       5.309e-09          -0.000          -0.000           1.000       3.473e-06          0.0239
 262       2.225e-01      -6.190e-01      -3.660e-09           0.000           0.000           1.000       5.563e-06          0.0354
 263       2.051e-01      -6.190e-01       2.141e-08          -0.000          -0.000           1.000       7.330e-06          0.0481
 264       1.829e-01      -6.190e-01       3.573e-08           0.000           0.000           1.000       8.671e-06          0.0630
 265       1.571e-01      -6.190e-01       3.381e-07           0.000           0.000           1.000       9.508e-06          0.0815
 266       1.293e-01      -6.190e-01       9.744e-07           0.000          -0.000           1.000       9.793e-06          0.1059
 267       1.012e-01      -6.190e-01      -1.311e-08          -0.000          -0.000           1.000       9.508e-06          0.1394
 268       7.421e-02      -6.190e-01      -1.707e-06           0.000           0.000           1.000       8.671e-06          0.1971
 269       5.005e-02      -6.190e-01       2.199e-06          -0.000          -0.000           1.000       7.330e-06          0.2988
 270       3.008e-02      -6.190e-01      -2.622e-07          -0.000          -0.000           1.000       5.563e-06          0.4826
 271       1.547e-02      -6.190e-01      -7.980e-07           0.000           0.000           1.000       3.473e-06          0.8585
 272       7.067e-03      -6.190e-01      -4.751e-07           0.000           0.000           1.000       1.180e-06          2.0589
Strip 22
 273       2.391e-01      -6.186e-01       2.952e-09           0.000          -0.000           1.000       1.347e-06          0.0139
 274       2.341e-01      -6.186e-01       5.313e-09          -0.000          -0.000           1.000       3.963e-06          0.0241
 275       2.225e-01      -6.186e-01      -3.663e-09           0.000           0.000           1.000       6.348e-06          0.0358
 276       2.050e-01      -6.186e-01       2.142e-08          -0.000          -0.000           1.000       8.365e-06          0.0486
 277       1.828e-01      -6.186e-01       3.576e-08           0.000           0.000           1.000       9.895e-06          0.0637
 278       1.570e-01      -6.186e-01       3.384e-07           0.000           0.000           1.000       1.085e-05          0.0825
 279       1.293e-01      -6.186e-01       9.752e-07           0.000          -0.000           1.000       1.118e-05          0.1072
 280       1.011e-01      -6.186e-01      -1.312e-08          -0.000          -0.000           1.000       1.085e-05          0.1412
 281       7.408e-02      -6.186e-01      -1.708e-06           0.000           0.000           1.000       9.895e-06          0.1995
 282       4.990e-02      -6.186e-01       2.201e-06          -0.000          -0.000           1.000       8.365e-06          0.3020
 283       2.992e-02      -6.186e-01      -2.624e-07          -0.000          -0.000           1.000       6.348e-06          0.4867
 284       1.530e-02      -6.186e-01      -7.986e-07           0.000           0.000           1.000       3.963e-06          0.8627
 285       6.884e-03      -6.186e-01      -4.755e-07           0.000           0.000           1.000       1.347e-06          2.0730
Strip 23
 286       2.391e-01      -6.182e-01       2.954e-09           0.000          -0.000           1.000       1.491e-06          0.0140
 287       2.341e-01      -6.182e-01       5.318e-09          -0.000          -0.000           1.000       4.386e-06          0.0244
 288       2.225e-01      -6.182e-01      -3.666e-09           0.000           0.000           1.000       7.027e-06          0.0362
 289       2.050e-01      -6.182e-01       2.144e-08          -0.000          -0.000           1.000       9.259e-06          0.0492
 290       1.828e-01      -6.182e-01       3.579e-08           0.000           0.000           1.000       1.095e-05          0.0645
 291       1.570e-01      -6.182e-01       3.387e-07           0.000           0.000           1.000       1.201e-05          0.0836
 292       1.292e-01      -6.182e-01       9.760e-07           0.000          -0.000           1.000       1.237e-05          0.1086
 293       1.009e-01      -6.182e-01      -1.313e-08          -0.000          -0.000           1.000       1.201e-05          0.1431
 294       7.394e-02      -6.182e-01      -1.709e-06           0.000           0.000           1.000       1.095e-05          0.2022
 295       4.973e-02      -6.182e-01       2.203e-06          -0.000          -0.000           1.000       9.259e-06          0.3055
 296       2.973e-02      -6.182e-01      -2.626e-07          -0.000          -0.000           1.000       7.027e-06          0.4912
 297       1.510e-02      -6.182e-01      -7.993e-07           0.000           0.000           1.000       4.386e-06          0.8679
 298       6.679e-03      -6.182e-01      -4.759e-07           0.000           0.000           1.000       1.491e-06          2.0864
Strip 24
 299       2.391e-01      -6.178e-01       2.957e-09           0.000          -0.000           1.000       1.610e-06          0.0142
 300       2.340e-01      -6.178e-01       5.323e-09          -0.000          -0.000           1.000       4.736e-06          0.0247
 301       2.224e-01      -6.178e-01      -3.669e-09           0.000           0.000           1.000       7.587e-06          0.0366
 302       2.050e-01      -6.178e-01       2.146e-08          -0.000          -0.000           1.000       9.997e-06          0.0499
 303       1.827e-01      -6.178e-01       3.582e-08           0.000           0.000           1.000       1.183e-05          0.0653
 304       1.569e-01      -6.178e-01       3.390e-07           0.000           0.000           1.000       1.297e-05          0.0847
 305       1.291e-01      -6.178e-01       9.770e-07           0.000          -0.000           1.000       1.336e-05          0.1101
 306       1.008e-01      -6.178e-01      -1.315e-08          -0.000          -0.000           1.000       1.297e-05          0.1451
 307       7.378e-02      -6.178e-01      -1.711e-06           0.000           0.000           1.000       1.183e-05          0.2050
 308       4.955e-02      -6.178e-01       2.205e-06          -0.000          -0.000           1.000       9.997e-06          0.3091
 309       2.953e-02      -6.178e-01      -2.629e-07          -0.000          -0.000           1.000       7.587e-06          0.4959
 310       1.488e-02      -6.178e-01      -8.001e-07           0.000           0.000           1.000       4.736e-06          0.8743
 311       6.456e-03      -6.178e-01      -4.763e-07           0.000           0.000           1.000       1.610e-06          2.0984
Strip 25
 312       2.391e-01      -6.173e-01       2.960e-09           0.000          -0.000           1.000       1.701e-06          0.0143
 313       2.340e-01      -6.173e-01       5.328e-09          -0.000          -0.000           1.000       5.005e-06          0.0250
 314       2.224e-01      -6.173e-01      -3.673e-09           0.000           0.000           1.000       8.019e-06          0.0371
 315       2.049e-01      -6.173e-01       2.148e-08          -0.000          -0.000           1.000       1.057e-05          0.0505
 316       1.826e-01      -6.173e-01       3.586e-08           0.000           0.000           1.000       1.250e-05          0.0662
 317       1.568e-01      -6.173e-01       3.394e-07           0.000           0.000           1.000       1.371e-05          0.0858
 318       1.289e-01      -6.173e-01       9.780e-07           0.000          -0.000           1.000       1.412e-05          0.1117
 319       1.007e-01      -6.173e-01      -1.316e-08          -0.000          -0.000           1.000       1.371e-05          0.1472
 320       7.361e-02      -6.173e-01      -1.713e-06           0.000           0.000           1.000       1.250e-05          0.2079
 321       4.936e-02      -6.173e-01       2.207e-06          -0.000          -0.000           1.000       1.057e-05          0.3130
 322       2.932e-02      -6.173e-01      -2.632e-07          -0.000          -0.000           1.000       8.019e-06          0.5008
 323       1.465e-02      -6.173e-01      -8.009e-07           0.000           0.000           1.000       5.005e-06          0.8816
 324       6.217e-03      -6.173e-01      -4.768e-07           0.000           0.000           1.000       1.701e-06          2.1089
Strip 26
 325       2.391e-01      -6.168e-01       2.963e-09           0.000          -0.000           1.000       1.764e-06          0.0145
 326       2.340e-01      -6.168e-01       5.334e-09          -0.000          -0.000           1.000       5.190e-06          0.0253
 327       2.224e-01      -6.168e-01      -3.677e-09           0.000           0.000           1.000       8.314e-06          0.0376
 328       2.049e-01      -6.168e-01       2.151e-08          -0.000          -0.000           1.000       1.096e-05          0.0512
 329       1.826e-01      -6.168e-01       3.590e-08           0.000           0.000           1.000       1.296e-05          0.0671
 330       1.567e-01      -6.168e-01       3.397e-07           0.000           0.000           1.000       1.421e-05          0.0870
 331       1.288e-01      -6.168e-01       9.790e-07           0.000          -0.000           1.000       1.464e-05          0.1132
 332       1.005e-01      -6.168e-01      -1.317e-08          -0.000          -0.000           1.000       1.421e-05          0.1494
 333       7.343e-02      -6.168e-01      -1.715e-06           0.000           0.000           1.000       1.296e-05          0.2109
 334       4.915e-02      -6.168e-01       2.210e-06          -0.000          -0.000           1.000       1.096e-05          0.3168
 335       2.909e-02      -6.168e-01      -2.634e-07          -0.000          -0.000           1.000       8.314e-06          0.5057
 336       1.441e-02      -6.168e-01      -8.018e-07           0.000           0.000           1.000       5.190e-06          0.8896
 337       5.968e-03      -6.168e-01      -4.773e-07           0.000           0.000           1.000       1.764e-06          2.1184
Strip 27
 338       2.391e-01      -6.163e-01       2.967e-09           0.000          -0.000           1.000       1.797e-06          0.0146
 339       2.340e-01      -6.163e-01       5.340e-09          -0.000          -0.000           1.000       5.286e-06          0.0256
 340       2.224e-01      -6.163e-01      -3.681e-09           0.000           0.000           1.000       8.468e-06          0.0380
 341       2.049e-01      -6.163e-01       2.153e-08          -0.000          -0.000           1.000       1.116e-05          0.0518
 342       1.825e-01      -6.163e-01       3.594e-08           0.000           0.000           1.000       1.320e-05          0.0680
 343       1.566e-01      -6.163e-01       3.401e-07           0.000           0.000           1.000       1.447e-05          0.0882
 344       1.287e-01      -6.163e-01       9.801e-07           0.000          -0.000           1.000       1.491e-05          0.1148
 345       1.004e-01      -6.163e-01      -1.319e-08          -0.000          -0.000           1.000       1.447e-05          0.1515
 346       7.325e-02      -6.163e-01      -1.717e-06           0.000           0.000           1.000       1.320e-05          0.2138
 347       4.894e-02      -6.163e-01       2.212e-06          -0.000          -0.000           1.000       1.116e-05          0.3206
 348       2.886e-02      -6.163e-01      -2.637e-07          -0.000          -0.000           1.000       8.468e-06          0.5104
 349       1.417e-02      -6.163e-01      -8.026e-07           0.000           0.000           1.000       5.286e-06          0.8973
 350       5.712e-03      -6.163e-01      -4.778e-07           0.000           0.000           1.000       1.797e-06          2.1288
Strip 28
 351       2.391e-01      -6.160e-01       2.968e-09           0.000           0.000           1.000       1.178e-07          0.0147
 352       2.340e-01      -6.160e-01       5.343e-09          -0.000          -0.000           1.000       3.467e-07          0.0257
 353       2.224e-01      -6.160e-01      -3.683e-09           0.000           0.000           1.000       5.553e-07          0.0382
 354       2.049e-01      -6.160e-01       2.154e-08          -0.000          -0.000           1.000       7.317e-07          0.0521
 355       1.825e-01      -6.160e-01       3.596e-08           0.000           0.000           1.000       8.656e-07          0.0683
 356       1.566e-01      -6.160e-01       3.403e-07           0.000           0.000           1.000       9.492e-07          0.0886
 357       1.286e-01      -6.160e-01       9.806e-07           0.000          -0.000           1.000       9.776e-07          0.1154
 358       1.003e-01      -6.160e-01      -1.320e-08          -0.000          -0.000           1.000       9.492e-07          0.1522
 359       7.315e-02      -6.160e-01      -1.717e-06           0.000           0.000           1.000       8.656e-07          0.2148
 360       4.884e-02      -6.160e-01       2.213e-06          -0.000          -0.000           1.000       7.317e-07          0.3219
 361       2.874e-02      -6.160e-01      -2.639e-07          -0.000          -0.000           1.000       5.553e-07          0.5120
 362       1.404e-02      -6.160e-01      -8.031e-07           0.000           0.000           1.000       3.467e-07          0.8993
 363       5.578e-03      -6.160e-01      -4.781e-07           0.000           0.000           1.000       1.178e-07          2.1352
Strip 29
 364       2.391e-01      -6.159e-01       2.969e-09           0.000          -0.000           1.000       3.515e-07          0.0147
 365       2.340e-01      -6.159e-01       5.343e-09          -0.000          -0.000           1.000       1.034e-06          0.0257
 366       2.224e-01      -6.159e-01      -3.683e-09           0.000           0.000           1.000       1.657e-06          0.0384
 367       2.048e-01      -6.159e-01       2.154e-08          -0.000          -0.000           1.000       2.183e-06          0.0523
 368       1.825e-01      -6.159e-01       3.596e-08           0.000           0.000           1.000       2.582e-06          0.0686
 369       1.566e-01      -6.159e-01       3.403e-07           0.000           0.000           1.000       2.832e-06          0.0890
 370       1.286e-01      -6.159e-01       9.807e-07           0.000          -0.000           1.000       2.916e-06          0.1158
 371       1.003e-01      -6.159e-01      -1.320e-08          -0.000          -0.000           1.000       2.832e-06          0.1529
 372       7.314e-02      -6.159e-01      -1.718e-06           0.000           0.000           1.000       2.582e-06          0.2157
 373       4.882e-02      -6.159e-01       2.214e-06          -0.000          -0.000           1.000       2.183e-06          0.3230
 374       2.873e-02      -6.159e-01      -2.639e-07          -0.000          -0.000           1.000       1.657e-06          0.5134
 375       1.402e-02      -6.159e-01      -8.032e-07           0.000           0.000           1.000       1.034e-06          0.9010
 376       5.561e-03      -6.159e-01      -4.781e-07           0.000           0.000           1.000       3.515e-07          2.1415
Strip 30
 377       2.391e-01      -6.158e-01       2.969e-09           0.000          -0.000           1.000       5.793e-07          0.0148
 378       2.340e-01      -6.158e-01       5.344e-09          -0.000          -0.000           1.000       1.704e-06          0.0259
 379       2.224e-01      -6.158e-01      -3.684e-09           0.000           0.000           1.000       2.730e-06          0.0385
 380       2.048e-01      -6.158e-01       2.155e-08          -0.000          -0.000           1.000       3.597e-06          0.0525
 381       1.825e-01      -6.158e-01       3.597e-08           0.000           0.000           1.000       4.255e-06          0.0690
 382       1.566e-01      -6.158e-01       3.404e-07           0.000           0.000           1.000       4.666e-06          0.0895
 383       1.286e-01      -6.158e-01       9.808e-07           0.000          -0.000           1.000       4.806e-06          0.1165
 384       1.002e-01      -6.158e-01      -1.320e-08          -0.000          -0.000           1.000       4.666e-06          0.1537
 385       7.312e-02      -6.158e-01      -1.718e-06           0.000           0.000           1.000       4.255e-06          0.2168
 386       4.879e-02      -6.158e-01       2.214e-06          -0.000          -0.000           1.000       3.597e-06          0.3244
 387       2.870e-02      -6.158e-01      -2.639e-07          -0.000          -0.000           1.000       2.730e-06          0.5151
 388       1.399e-02      -6.158e-01      -8.033e-07           0.000           0.000           1.000       1.704e-06          0.9030
 389       5.528e-03      -6.158e-01      -4.782e-07           0.000           0.000           1.000       5.793e-07          2.1508
Strip 31
 390       2.391e-01      -6.156e-01       2.970e-09           0.000          -0.000           1.000       7.972e-07          0.0149
 391       2.340e-01      -6.156e-01       5.345e-09          -0.000          -0.000           1.000       2.345e-06          0.0260
 392       2.224e-01      -6.156e-01      -3.685e-09           0.000           0.000           1.000       3.757e-06          0.0388
 393       2.048e-01      -6.156e-01       2.155e-08          -0.000          -0.000           1.000       4.951e-06          0.0529
 394       1.825e-01      -6.156e-01       3.597e-08           0.000           0.000           1.000       5.856e-06          0.0694
 395       1.565e-01      -6.156e-01       3.405e-07           0.000           0.000           1.000       6.422e-06          0.0900
 396       1.286e-01      -6.156e-01       9.810e-07           0.000          -0.000           1.000       6.614e-06          0.1172
 397       1.002e-01      -6.156e-01      -1.320e-08          -0.000          -0.000           1.000       6.422e-06          0.1548
 398       7.308e-02      -6.156e-01      -1.718e-06           0.000           0.000           1.000       5.856e-06          0.2182
 399       4.875e-02      -6.156e-01       2.214e-06          -0.000          -0.000           1.000       4.951e-06          0.3262
 400       2.865e-02      -6.156e-01      -2.640e-07          -0.000          -0.000           1.000       3.757e-06          0.5173
 401       1.394e-02      -6.156e-01      -8.034e-07           0.000           0.000           1.000       2.345e-06          0.9051
 402       5.479e-03      -6.156e-01      -4.783e-07           0.000           0.000           1.000       7.972e-07          2.1636
Strip 32
 403       2.391e-01      -6.153e-01       2.970e-09           0.000          -0.000           1.000       1.002e-06          0.0150
 404       2.340e-01      -6.153e-01       5.346e-09          -0.000          -0.000           1.000       2.947e-06          0.0262
 405       2.224e-01      -6.153e-01      -3.686e-09           0.000           0.000           1.000       4.721e-06          0.0390
 406       2.048e-01      -6.153e-01       2.156e-08          -0.000          -0.000           1.000       6.220e-06          0.0533
 407       1.825e-01      -6.153e-01       3.598e-08           0.000           0.000           1.000       7.358e-06          0.0699
 408       1.565e-01      -6.153e-01       3.405e-07           0.000           0.000           1.000       8.069e-06          0.0907
 409       1.286e-01      -6.153e-01       9.813e-07           0.000          -0.000           1.000       8.310e-06          0.1182
 410       1.002e-01      -6.153e-01      -1.321e-08          -0.000          -0.000           1.000       8.069e-06          0.1560
 411       7.304e-02      -6.153e-01      -1.719e-06           0.000           0.000           1.000       7.358e-06          0.2199
 412       4.870e-02      -6.153e-01       2.215e-06          -0.000          -0.000           1.000       6.220e-06          0.3283
 413       2.859e-02      -6.153e-01      -2.641e-07          -0.000          -0.000           1.000       4.721e-06          0.5198
 414       1.388e-02      -6.153e-01      -8.037e-07           0.000           0.000           1.000       2.947e-06          0.9074
 415       5.414e-03      -6.153e-01      -4.784e-07           0.000           0.000           1.000       1.002e-06          2.1801
Strip 33
 416       2.391e-01      -6.150e-01       2.971e-09           0.000           0.000           1.000       1.189e-06          0.0151
 417       2.340e-01      -6.150e-01       5.348e-09          -0.000          -0.000           1.000       3.498e-06          0.0264
 418       2.224e-01      -6.150e-01      -3.687e-09           0.000           0.000           1.000       5.604e-06          0.0394
 419       2.048e-01      -6.150e-01       2.156e-08          -0.000          -0.000           1.000       7.385e-06          0.0537
 420       1.824e-01      -6.150e-01       3.600e-08           0.000           0.000           1.000       8.736e-06          0.0705
 421       1.565e-01      -6.150e-01       3.407e-07           0.000           0.000           1.000       9.579e-06          0.0916
 422       1.285e-01      -6.150e-01       9.816e-07           0.000          -0.000           1.000       9.866e-06          0.1192
 423       1.001e-01      -6.150e-01      -1.321e-08          -0.000          -0.000           1.000       9.579e-06          0.1575
 424       7.298e-02      -6.150e-01      -1.719e-06           0.000           0.000           1.000       8.736e-06          0.2219
 425       4.864e-02      -6.150e-01       2.216e-06          -0.000          -0.000           1.000       7.385e-06          0.3308
 426       2.852e-02      -6.150e-01      -2.642e-07          -0.000          -0.000           1.000       5.604e-06          0.5227
 427       1.380e-02      -6.150e-01      -8.039e-07           0.000           0.000           1.000       3.498e-06          0.9100
 428       5.335e-03      -6.150e-01      -4.786e-07           0.000           0.000           1.000       1.189e-06          2.1997
Strip 34
 429       2.391e-01      -6.146e-01       2.973e-09           0.000          -0.000           1.000       1.357e-06          0.0152
 430       2.340e-01      -6.146e-01       5.350e-09          -0.000          -0.000           1.000       3.991e-06          0.0266
 431       2.223e-01      -6.146e-01      -3.688e-09           0.000           0.000           1.000       6.393e-06          0.0397
 432       2.048e-01      -6.146e-01       2.157e-08          -0.000          -0.000           1.000       8.424e-06          0.0542
 433       1.824e-01      -6.146e-01       3.601e-08           0.000           0.000           1.000       9.965e-06          0.0712
 434       1.565e-01      -6.146e-01       3.408e-07           0.000           0.000           1.000       1.093e-05          0.0925
 435       1.285e-01      -6.146e-01       9.820e-07           0.000          -0.000           1.000       1.125e-05          0.1205
 436       1.001e-01      -6.146e-01      -1.322e-08          -0.000          -0.000           1.000       1.093e-05          0.1591
 437       7.291e-02      -6.146e-01      -1.720e-06           0.000           0.000           1.000       9.965e-06          0.2241
 438       4.856e-02      -6.146e-01       2.217e-06          -0.000          -0.000           1.000       8.424e-06          0.3336
 439       2.844e-02      -6.146e-01      -2.643e-07          -0.000          -0.000           1.000       6.393e-06          0.5259
 440       1.371e-02      -6.146e-01      -8.043e-07           0.000           0.000           1.000       3.991e-06          0.9133
 441       5.244e-03      -6.146e-01      -4.788e-07           0.000           0.000           1.000       1.357e-06          2.2214
Strip 35
 442       2.391e-01      -6.142e-01       2.974e-09           0.000          -0.000           1.000       1.501e-06          0.0153
 443       2.340e-01      -6.142e-01       5.353e-09          -0.000          -0.000           1.000       4.415e-06          0.0269
 444       2.223e-01      -6.142e-01      -3.690e-09           0.000           0.000           1.000       7.073e-06          0.0401
 445       2.048e-01      -6.142e-01       2.158e-08          -0.000          -0.000           1.000       9.320e-06          0.0548
 446       1.824e-01      -6.142e-01       3.603e-08           0.000           0.000           1.000       1.103e-05          0.0720
 447       1.564e-01      -6.142e-01       3.409e-07           0.000           0.000           1.000       1.209e-05          0.0935
 448       1.284e-01      -6.142e-01       9.825e-07           0.000          -0.000           1.000       1.245e-05          0.1218
 449       1.000e-01      -6.142e-01      -1.322e-08          -0.000          -0.000           1.000       1.209e-05          0.1610
 450       7.284e-02      -6.142e-01      -1.721e-06           0.000           0.000           1.000       1.103e-05          0.2266
 451       4.848e-02      -6.142e-01       2.218e-06          -0.000          -0.000           1.000       9.320e-06          0.3366
 452       2.835e-02      -6.142e-01      -2.644e-07          -0.000          -0.000           1.000       7.073e-06          0.5295
 453       1.362e-02      -6.142e-01      -8.046e-07           0.000           0.000           1.000       4.415e-06          0.9174
 454       5.142e-03      -6.142e-01      -4.790e-07           0.000           0.000           1.000       1.501e-06          2.2441
Strip 36
 455       2.391e-01      -6.138e-01       2.975e-09           0.000          -0.000           1.000       1.620e-06          0.0154
 456       2.340e-01      -6.138e-01       5.355e-09          -0.000          -0.000           1.000       4.765e-06          0.0271
 457       2.223e-01      -6.138e-01      -3.692e-09           0.000           0.000           1.000       7.633e-06          0.0406
 458       2.048e-01      -6.138e-01       2.159e-08          -0.000          -0.000           1.000       1.006e-05          0.0554
 459       1.824e-01      -6.138e-01       3.604e-08           0.000           0.000           1.000       1.190e-05          0.0729
 460       1.564e-01      -6.138e-01       3.411e-07           0.000           0.000           1.000       1.305e-05          0.0946
 461       1.284e-01      -6.138e-01       9.829e-07           0.000          -0.000           1.000       1.344e-05          0.1233
 462       9.995e-02      -6.138e-01      -1.323e-08          -0.000          -0.000           1.000       1.305e-05          0.1629
 463       7.276e-02      -6.138e-01      -1.722e-06           0.000           0.000           1.000       1.190e-05          0.2292
 464       4.839e-02      -6.138e-01       2.219e-06          -0.000          -0.000           1.000       1.006e-05          0.3400
 465       2.825e-02      -6.138e-01      -2.645e-07          -0.000          -0.000           1.000       7.633e-06          0.5334
 466       1.351e-02      -6.138e-01      -8.050e-07           0.000           0.000           1.000       4.765e-06          0.9224
 467       5.030e-03      -6.138e-01      -4.792e-07           0.000           0.000           1.000       1.620e-06          2.2670
Strip 37
 468       2.391e-01      -6.133e-01       2.977e-09           0.000          -0.000           1.000       1.711e-06          0.0156
 469       2.340e-01      -6.133e-01       5.358e-09          -0.000          -0.000           1.000       5.033e-06          0.0274
 470       2.223e-01      -6.133e-01      -3.694e-09           0.000           0.000           1.000       8.063e-06          0.0410
 471       2.048e-01      -6.133e-01       2.160e-08          -0.000          -0.000           1.000       1.062e-05          0.0561
 472       1.823e-01      -6.133e-01       3.606e-08           0.000           0.000           1.000       1.257e-05          0.0738
 473       1.563e-01      -6.133e-01       3.413e-07           0.000           0.000           1.000       1.378e-05          0.0958
 474       1.283e-01      -6.133e-01       9.834e-07           0.000          -0.000           1.000       1.419e-05          0.1249
 475       9.988e-02      -6.133e-01      -1.323e-08          -0.000          -0.000           1.000       1.378e-05          0.1650
 476       7.268e-02      -6.133e-01      -1.722e-06           0.000           0.000           1.000       1.257e-05          0.2320
 477       4.829e-02      -6.133e-01       2.220e-06          -0.000          -0.000           1.000       1.062e-05          0.3435
 478       2.814e-02      -6.133e-01      -2.646e-07          -0.000          -0.000           1.000       8.063e-06          0.5376
 479       1.339e-02      -6.133e-01      -8.054e-07           0.000           0.000           1.000       5.033e-06          0.9282
 480       4.911e-03      -6.133e-01      -4.795e-07           0.000           0.000           1.000       1.711e-06          2.2894
Strip 38
 481       2.391e-01      -6.128e-01       2.978e-09           0.000          -0.000           1.000       1.773e-06          0.0158
 482       2.340e-01      -6.128e-01       5.361e-09          -0.000          -0.000           1.000       5.216e-06          0.0277
[...]
1281       1.029e-01       6.231e-01      -1.295e-08          -0.000           0.000           1.000       1.731e-05          0.1204
1282       7.622e-02       6.231e-01      -1.686e-06           0.000          -0.000           1.000       1.578e-05          0.1699
1283       5.236e-02       6.231e-01       2.173e-06          -0.000           0.000           1.000       1.334e-05          0.2620
1284       3.263e-02       6.231e-01      -2.590e-07          -0.000           0.000           1.000       1.013e-05          0.4330
1285       1.820e-02       6.231e-01      -7.883e-07           0.000          -0.000           1.000       6.321e-06          0.7887
1286       9.895e-03       6.231e-01      -4.693e-07           0.000          -0.000           1.000       2.149e-06          2.0087
Strip 100
1287       2.392e-01       6.237e-01       2.909e-09           0.000          -0.000           1.000       1.348e-06          0.0121
1288       2.341e-01       6.237e-01       5.236e-09          -0.000           0.000           1.000       3.967e-06          0.0208
1289       2.227e-01       6.237e-01      -3.609e-09           0.000          -0.000           1.000       6.355e-06          0.0305
1290       2.056e-01       6.237e-01       2.111e-08          -0.000           0.000           1.000       8.373e-06          0.0412
1291       1.836e-01       6.237e-01       3.524e-08           0.000          -0.000           1.000       9.905e-06          0.0538
1292       1.583e-01       6.237e-01       3.335e-07           0.000          -0.000           1.000       1.086e-05          0.0694
1293       1.309e-01       6.237e-01       9.610e-07           0.000           0.000           1.000       1.119e-05          0.0897
1294       1.031e-01       6.237e-01      -1.293e-08          -0.000           0.000           1.000       1.086e-05          0.1172
1295       7.650e-02       6.237e-01      -1.683e-06           0.000          -0.000           1.000       9.905e-06          0.1654
1296       5.267e-02       6.237e-01       2.169e-06          -0.000           0.000           1.000       8.373e-06          0.2559
1297       3.298e-02       6.237e-01      -2.586e-07          -0.000           0.000           1.000       6.355e-06          0.4250
1298       1.857e-02       6.237e-01      -7.870e-07           0.000          -0.000           1.000       3.967e-06          0.7754
1299       1.028e-02       6.237e-01      -4.685e-07           0.000          -0.000           1.000       1.348e-06          1.9992
Strip 101
1300       2.392e-01       6.239e-01       2.906e-09           0.000           0.000           1.000       4.595e-07          0.0119
1301       2.341e-01       6.239e-01       5.231e-09          -0.000           0.000           1.000       1.352e-06          0.0205
1302       2.227e-01       6.239e-01      -3.606e-09           0.000          -0.000           1.000       2.166e-06          0.0300
1303       2.056e-01       6.239e-01       2.109e-08          -0.000           0.000           1.000       2.854e-06          0.0404
1304       1.837e-01       6.239e-01       3.521e-08           0.000          -0.000           1.000       3.376e-06          0.0527
1305       1.583e-01       6.239e-01       3.332e-07           0.000          -0.000           1.000       3.702e-06          0.0680
1306       1.310e-01       6.239e-01       9.601e-07           0.000           0.000           1.000       3.812e-06          0.0879
1307       1.032e-01       6.239e-01      -1.292e-08          -0.000           0.000           1.000       3.702e-06          0.1147
1308       7.664e-02       6.239e-01      -1.682e-06           0.000          -0.000           1.000       3.376e-06          0.1618
1309       5.283e-02       6.239e-01       2.167e-06          -0.000           0.000           1.000       2.854e-06          0.2510
1310       3.316e-02       6.239e-01      -2.584e-07          -0.000           0.000           1.000       2.166e-06          0.4186
1311       1.876e-02       6.239e-01      -7.863e-07           0.000          -0.000           1.000       1.352e-06          0.7648
1312       1.048e-02       6.239e-01      -4.681e-07           0.000          -0.000           1.000       4.595e-07          1.9886
Strip 102
1313       2.392e-01       6.250e-01       2.896e-09           0.000           0.000           1.000       6.720e-06          0.0117
1314       2.342e-01       6.250e-01       5.213e-09          -0.000           0.000           1.000       1.977e-05          0.0201
1315       2.228e-01       6.250e-01      -3.594e-09           0.000          -0.000           1.000       3.167e-05          0.0293
1316       2.057e-01       6.250e-01       2.102e-08          -0.000           0.000           1.000       4.173e-05          0.0395
1317       1.839e-01       6.250e-01       3.509e-08           0.000          -0.000           1.000       4.936e-05          0.0515
1318       1.586e-01       6.250e-01       3.320e-07           0.000          -0.000           1.000       5.413e-05          0.0664
1319       1.313e-01       6.250e-01       9.568e-07           0.000           0.000           1.000       5.575e-05          0.0857
1320       1.037e-01       6.250e-01      -1.288e-08          -0.000           0.000           1.000       5.413e-05          0.1118
1321       7.720e-02       6.250e-01      -1.676e-06           0.000          -0.000           1.000       4.936e-05          0.1576
1322       5.348e-02       6.250e-01       2.160e-06          -0.000           0.000           1.000       4.173e-05          0.2453
1323       3.387e-02       6.250e-01      -2.575e-07          -0.000           0.000           1.000       3.167e-05          0.4115
1324       1.952e-02       6.250e-01      -7.836e-07           0.000          -0.000           1.000       1.977e-05          0.7531
1325       1.127e-02       6.250e-01      -4.665e-07           0.000          -0.000           1.000       6.720e-06          1.9787
Strip 103
1326       2.392e-01       6.267e-01       2.880e-09           0.000           0.000           1.000       4.892e-06          0.0111
1327       2.342e-01       6.267e-01       5.184e-09          -0.000           0.000           1.000       1.439e-05          0.0190
1328       2.229e-01       6.267e-01      -3.574e-09           0.000          -0.000           1.000       2.305e-05          0.0276
1329       2.059e-01       6.267e-01       2.090e-08          -0.000           0.000           1.000       3.038e-05          0.0371
1330       1.842e-01       6.267e-01       3.489e-08           0.000          -0.000           1.000       3.593e-05          0.0482
1331       1.591e-01       6.267e-01       3.302e-07           0.000          -0.000           1.000       3.940e-05          0.0621
1332       1.320e-01       6.267e-01       9.514e-07           0.000           0.000           1.000       4.058e-05          0.0801
1333       1.044e-01       6.267e-01      -1.280e-08          -0.000           0.000           1.000       3.940e-05          0.1041
1334       7.812e-02       6.267e-01      -1.666e-06           0.000          -0.000           1.000       3.593e-05          0.1464
1335       5.452e-02       6.267e-01       2.148e-06          -0.000           0.000           1.000       3.038e-05          0.2301
1336       3.503e-02       6.267e-01      -2.560e-07          -0.000           0.000           1.000       2.305e-05          0.3940
1337       2.076e-02       6.267e-01      -7.792e-07           0.000          -0.000           1.000       1.439e-05          0.7280
1338       1.255e-02       6.267e-01      -4.639e-07           0.000          -0.000           1.000       4.892e-06          1.8988
Strip 104
1339       2.392e-01       6.277e-01       2.871e-09           0.000           0.000           1.000       1.785e-06          0.0107
1340       2.342e-01       6.277e-01       5.167e-09          -0.000           0.000           1.000       5.250e-06          0.0181
1341       2.229e-01       6.277e-01      -3.562e-09           0.000          -0.000           1.000       8.410e-06          0.0262
1342       2.060e-01       6.277e-01       2.083e-08          -0.000           0.000           1.000       1.108e-05          0.0352
1343       1.844e-01       6.277e-01       3.477e-08           0.000          -0.000           1.000       1.311e-05          0.0457
1344       1.593e-01       6.277e-01       3.291e-07           0.000          -0.000           1.000       1.438e-05          0.0587
1345       1.323e-01       6.277e-01       9.483e-07           0.000           0.000           1.000       1.481e-05          0.0756
1346       1.049e-01       6.277e-01      -1.276e-08          -0.000           0.000           1.000       1.438e-05          0.0980
1347       7.865e-02       6.277e-01      -1.661e-06           0.000          -0.000           1.000       1.311e-05          0.1375
1348       5.513e-02       6.277e-01       2.141e-06          -0.000           0.000           1.000       1.108e-05          0.2176
1349       3.570e-02       6.277e-01      -2.552e-07          -0.000           0.000           1.000       8.410e-06          0.3793
1350       2.148e-02       6.277e-01      -7.767e-07           0.000          -0.000           1.000       5.250e-06          0.7168
1351       1.330e-02       6.277e-01      -4.624e-07           0.000          -0.000           1.000       1.785e-06          1.8061
Strip 105
1352       2.392e-01       6.294e-01       2.846e-09           0.000           0.000           1.000       9.338e-06          0.0102
1353       2.343e-01       6.294e-01       5.122e-09          -0.000           0.000           1.000       2.747e-05          0.0171
1354       2.231e-01       6.294e-01      -3.531e-09           0.000          -0.000           1.000       4.401e-05          0.0247
1355       2.063e-01       6.294e-01       2.065e-08          -0.000           0.000           1.000       5.799e-05          0.0330
1356       1.849e-01       6.294e-01       3.448e-08           0.000          -0.000           1.000       6.860e-05          0.0429
1357       1.600e-01       6.294e-01       3.263e-07           0.000          -0.000           1.000       7.522e-05          0.0550
1358       1.332e-01       6.294e-01       9.402e-07           0.000           0.000           1.000       7.747e-05          0.0707
1359       1.060e-01       6.294e-01      -1.265e-08          -0.000           0.000           1.000       7.522e-05          0.0913
1360       8.003e-02       6.294e-01      -1.647e-06           0.000          -0.000           1.000       6.860e-05          0.1276
1361       5.672e-02       6.294e-01       2.122e-06          -0.000           0.000           1.000       5.799e-05          0.2034
1362       3.745e-02       6.294e-01      -2.530e-07          -0.000           0.000           1.000       4.401e-05          0.3618
1363       2.335e-02       6.294e-01      -7.700e-07           0.000          -0.000           1.000       2.747e-05          0.6948
1364       1.524e-02       6.294e-01      -4.584e-07           0.000          -0.000           1.000       9.338e-06          1.7523
Strip 106
1365       2.392e-01       6.314e-01       2.815e-09           0.000           0.000           1.000       3.825e-06          0.0093
1366       2.343e-01       6.314e-01       5.066e-09          -0.000           0.000           1.000       1.125e-05          0.0155
1367       2.233e-01       6.314e-01      -3.492e-09           0.000          -0.000           1.000       1.803e-05          0.0223
1368       2.067e-01       6.314e-01       2.043e-08          -0.000           0.000           1.000       2.375e-05          0.0298
1369       1.855e-01       6.314e-01       3.410e-08           0.000          -0.000           1.000       2.810e-05          0.0386
1370       1.609e-01       6.314e-01       3.227e-07           0.000          -0.000           1.000       3.081e-05          0.0494
1371       1.344e-01       6.314e-01       9.299e-07           0.000           0.000           1.000       3.174e-05          0.0632
1372       1.075e-01       6.314e-01      -1.251e-08          -0.000           0.000           1.000       3.081e-05          0.0812
1373       8.179e-02       6.314e-01      -1.629e-06           0.000          -0.000           1.000       2.810e-05          0.1126
1374       5.873e-02       6.314e-01       2.099e-06          -0.000           0.000           1.000       2.375e-05          0.1800
1375       3.968e-02       6.314e-01      -2.502e-07          -0.000           0.000           1.000       1.803e-05          0.3329
1376       2.574e-02       6.314e-01      -7.615e-07           0.000          -0.000           1.000       1.125e-05          0.6489
1377       1.772e-02       6.314e-01      -4.534e-07           0.000          -0.000           1.000       3.825e-06          1.6822
Strip 107
1378       2.392e-01       6.334e-01       2.775e-09           0.000           0.000           1.000       9.103e-06          0.0085
1379       2.344e-01       6.334e-01       4.994e-09          -0.000           0.000           1.000       2.678e-05          0.0139
1380       2.235e-01       6.334e-01      -3.443e-09           0.000          -0.000           1.000       4.290e-05          0.0198
1381       2.071e-01       6.334e-01       2.014e-08          -0.000           0.000           1.000       5.653e-05          0.0263
1382       1.862e-01       6.334e-01       3.361e-08           0.000          -0.000           1.000       6.687e-05          0.0340
1383       1.620e-01       6.334e-01       3.181e-07           0.000          -0.000           1.000       7.333e-05          0.0434
1384       1.359e-01       6.334e-01       9.166e-07           0.000           0.000           1.000       7.552e-05          0.0554
1385       1.094e-01       6.334e-01      -1.233e-08          -0.000           0.000           1.000       7.333e-05          0.0706
1386       8.405e-02       6.334e-01      -1.605e-06           0.000          -0.000           1.000       6.687e-05          0.0968
1387       6.132e-02       6.334e-01       2.069e-06          -0.000           0.000           1.000       5.653e-05          0.1542
1388       4.254e-02       6.334e-01      -2.466e-07          -0.000           0.000           1.000       4.290e-05          0.2997
1389       2.879e-02       6.334e-01      -7.507e-07           0.000          -0.000           1.000       2.678e-05          0.5992
1390       2.089e-02       6.334e-01      -4.469e-07           0.000          -0.000           1.000       9.103e-06          1.6137
Strip 108
1391       2.392e-01       6.354e-01       2.731e-09           0.000           0.000           1.000       3.711e-06          0.0074
1392       2.345e-01       6.354e-01       4.915e-09          -0.000           0.000           1.000       1.092e-05          0.0118
1393       2.238e-01       6.354e-01      -3.388e-09           0.000          -0.000           1.000       1.749e-05          0.0167
1394       2.077e-01       6.354e-01       1.982e-08          -0.000           0.000           1.000       2.305e-05          0.0222
1395       1.871e-01       6.354e-01       3.308e-08           0.000          -0.000           1.000       2.726e-05          0.0285
1396       1.633e-01       6.354e-01       3.131e-07           0.000          -0.000           1.000       2.989e-05          0.0363
1397       1.376e-01       6.354e-01       9.021e-07           0.000           0.000           1.000       3.079e-05          0.0460
1398       1.115e-01       6.354e-01      -1.214e-08          -0.000           0.000           1.000       2.989e-05          0.0580
1399       8.651e-02       6.354e-01      -1.580e-06           0.000          -0.000           1.000       2.726e-05          0.0786
1400       6.414e-02       6.354e-01       2.036e-06          -0.000           0.000           1.000       2.305e-05          0.1238
1401       4.566e-02       6.354e-01      -2.427e-07          -0.000           0.000           1.000       1.749e-05          0.2666
1402       3.213e-02       6.354e-01      -7.388e-07           0.000          -0.000           1.000       1.092e-05          0.5237
1403       2.435e-02       6.354e-01      -4.398e-07           0.000          -0.000           1.000       3.711e-06          1.4615
Strip 109
1404       2.392e-01       6.374e-01       2.643e-09           0.000           0.000           1.000       8.671e-06          0.0061
1405       2.347e-01       6.374e-01       4.756e-09          -0.000           0.000           1.000       2.551e-05          0.0096
1406       2.243e-01       6.374e-01      -3.279e-09           0.000          -0.000           1.000       4.086e-05          0.0134
1407       2.087e-01       6.374e-01       1.918e-08          -0.000           0.000           1.000       5.384e-05          0.0177
1408       1.888e-01       6.374e-01       3.201e-08           0.000          -0.000           1.000       6.369e-05          0.0227
1409       1.657e-01       6.374e-01       3.030e-07           0.000          -0.000           1.000       6.984e-05          0.0287
1410       1.409e-01       6.374e-01       8.730e-07           0.000           0.000           1.000       7.193e-05          0.0360
1411       1.156e-01       6.374e-01      -1.175e-08          -0.000           0.000           1.000       6.984e-05          0.0444
1412       9.147e-02       6.374e-01      -1.529e-06           0.000          -0.001           1.000       6.369e-05          0.0579
1413       6.982e-02       6.374e-01       1.971e-06          -0.000           0.001           1.000       5.384e-05          0.0850
1414       5.193e-02       6.374e-01      -2.349e-07          -0.000           0.000           1.000       4.086e-05          0.1952
1415       3.884e-02       6.374e-01      -7.150e-07           0.000          -0.000           1.000       2.551e-05          0.5234
1416       3.131e-02       6.374e-01      -4.256e-07           0.000          -0.001           1.000       8.671e-06          1.2648
Strip 110
1417       2.393e-01       6.394e-01       2.536e-09           0.000           0.000           1.000       3.447e-06          0.0040
1418       2.349e-01       6.394e-01       4.565e-09          -0.000           0.000           1.000       1.014e-05          0.0059
1419       2.249e-01       6.394e-01      -3.147e-09           0.000          -0.000           1.000       1.624e-05          0.0082
1420       2.100e-01       6.394e-01       1.841e-08          -0.000           0.000           1.000       2.140e-05          0.0108
1421       1.909e-01       6.394e-01       3.072e-08           0.000          -0.000           1.000       2.532e-05          0.0138
1422       1.687e-01       6.394e-01       2.907e-07           0.000          -0.000           1.000       2.776e-05          0.0173
1423       1.449e-01       6.394e-01       8.378e-07           0.000           0.000           1.000       2.860e-05          0.0215
1424       1.206e-01       6.394e-01      -1.127e-08          -0.000           0.000           1.000       2.776e-05          0.0259
1425       9.745e-02       6.394e-01      -1.467e-06           0.000          -0.001           1.000       2.532e-05          0.0329
1426       7.667e-02       6.394e-01       1.891e-06          -0.000           0.001           1.000       2.140e-05          0.0457
1427       5.951e-02       6.394e-01      -2.255e-07          -0.000           0.000           1.000       1.624e-05          0.0833
1428       4.694e-02       6.394e-01      -6.862e-07           0.000          -0.000           1.000       1.014e-05          0.2608
1429       3.972e-02       6.394e-01      -4.085e-07           0.000          -0.001           1.000       3.447e-06          1.2749










